1
 SUMMARY VOLUMETRIC BUDGET FOR GSFLOW 
 DATE: 10 07 1980              CUMULATIVE TIME STEP:       7
 MODFLOW STRESS PERIOD      2     CURRENT TIME STEP:       7     ITERATIONS:       4

 -----------------------------------------------------------------------------------

   CUMULATIVE VOLUMES               L**3   RATES FOR THIS TIME STEP           L**3/T
   ------------------                      ------------------------

                                     IN                                         IN
                                     --                                         --
        PRECIPITATION =                            PRECIPITATION =                  
           STREAMFLOW =                               STREAMFLOW =                  
     GW BOUNDARY FLOW =                         GW BOUNDARY FLOW =                  


                                    OUT                                        OUT
                                    ---                                        ---
   EVAPOTRANSPIRATION =          65406.43     EVAPOTRANSPIRATION =           9159.84
           STREAMFLOW =          43081.79             STREAMFLOW =           6083.36
     GW BOUNDARY FLOW =           5067.91       GW BOUNDARY FLOW =            723.89

   INFLOWS - OUTFLOWS =        -113556.12     INFLOWS - OUTFLOWS =         -15967.09
             --------                                   --------

 TOTAL STORAGE CHANGE =        -113321.99         STORAGE CHANGE =         -15932.84
       --------------                             --------------
         LAND SURFACE =                             LAND SURFACE =                  
            SOIL ZONE =          45038.77              SOIL ZONE =           6526.75
     UNSATURATED ZONE =        -144965.30       UNSATURATED ZONE =         -20382.35
       SATURATED ZONE =         -13395.46         SATURATED ZONE =          -2077.23

 OVERALL BUDGET ERROR =           -234.13           BUDGET ERROR =            -34.25


  PERCENT DISCREPANCY =             -0.21    PERCENT DISCREPANCY =             -0.21



1
 SUMMARY VOLUMETRIC BUDGET FOR GSFLOW 
 DATE: 10 14 1980              CUMULATIVE TIME STEP:      14
 MODFLOW STRESS PERIOD      2     CURRENT TIME STEP:      14     ITERATIONS:       4

 -----------------------------------------------------------------------------------

   CUMULATIVE VOLUMES               L**3   RATES FOR THIS TIME STEP           L**3/T
   ------------------                      ------------------------

                                     IN                                         IN
                                     --                                         --
        PRECIPITATION =         650779.83          PRECIPITATION =         164754.40
           STREAMFLOW =                               STREAMFLOW =                  
     GW BOUNDARY FLOW =                         GW BOUNDARY FLOW =                  


                                    OUT                                        OUT
                                    ---                                        ---
   EVAPOTRANSPIRATION =         160181.54     EVAPOTRANSPIRATION =          11485.13
           STREAMFLOW =          94488.96             STREAMFLOW =           7705.41
     GW BOUNDARY FLOW =          10135.83       GW BOUNDARY FLOW =            724.16

   INFLOWS - OUTFLOWS =         385973.50     INFLOWS - OUTFLOWS =         144839.70
             --------                                   --------

 TOTAL STORAGE CHANGE =         386441.70         STORAGE CHANGE =         144874.89
       --------------                             --------------
         LAND SURFACE =         183750.31           LAND SURFACE =         130549.56
            SOIL ZONE =         516100.21              SOIL ZONE =          36427.49
     UNSATURATED ZONE =        -284675.81       UNSATURATED ZONE =         -19601.72
       SATURATED ZONE =         -28733.02         SATURATED ZONE =          -2500.44

 OVERALL BUDGET ERROR =           -468.20           BUDGET ERROR =            -35.20


  PERCENT DISCREPANCY =             -0.07    PERCENT DISCREPANCY =             -0.02



1
 SUMMARY VOLUMETRIC BUDGET FOR GSFLOW 
 DATE: 10 21 1980              CUMULATIVE TIME STEP:      21
 MODFLOW STRESS PERIOD      2     CURRENT TIME STEP:      21     ITERATIONS:       5

 -----------------------------------------------------------------------------------

   CUMULATIVE VOLUMES               L**3   RATES FOR THIS TIME STEP           L**3/T
   ------------------                      ------------------------

                                     IN                                         IN
                                     --                                         --
        PRECIPITATION =         733157.03          PRECIPITATION =                  
           STREAMFLOW =                               STREAMFLOW =                  
     GW BOUNDARY FLOW =                         GW BOUNDARY FLOW =                  


                                    OUT                                        OUT
                                    ---                                        ---
   EVAPOTRANSPIRATION =         391022.36     EVAPOTRANSPIRATION =          34555.81
           STREAMFLOW =         145916.95             STREAMFLOW =           6945.94
     GW BOUNDARY FLOW =          15204.01       GW BOUNDARY FLOW =            723.92

   INFLOWS - OUTFLOWS =         181013.71     INFLOWS - OUTFLOWS =         -42225.67
             --------                                   --------

 TOTAL STORAGE CHANGE =         181702.10         STORAGE CHANGE =         -42195.45
       --------------                             --------------
         LAND SURFACE =                             LAND SURFACE =                  
            SOIL ZONE =         648859.96              SOIL ZONE =         -20231.44
     UNSATURATED ZONE =        -418560.75       UNSATURATED ZONE =         -18774.02
       SATURATED ZONE =         -48597.10         SATURATED ZONE =          -3189.98

 OVERALL BUDGET ERROR =           -688.40           BUDGET ERROR =            -30.23


  PERCENT DISCREPANCY =             -0.09    PERCENT DISCREPANCY =             -0.07



1
 SUMMARY VOLUMETRIC BUDGET FOR GSFLOW 
 DATE: 10 28 1980              CUMULATIVE TIME STEP:      28
 MODFLOW STRESS PERIOD      2     CURRENT TIME STEP:      28     ITERATIONS:       5

 -----------------------------------------------------------------------------------

   CUMULATIVE VOLUMES               L**3   RATES FOR THIS TIME STEP           L**3/T
   ------------------                      ------------------------

                                     IN                                         IN
                                     --                                         --
        PRECIPITATION =        1070903.53          PRECIPITATION =                  
           STREAMFLOW =                               STREAMFLOW =                  
     GW BOUNDARY FLOW =                         GW BOUNDARY FLOW =                  


                                    OUT                                        OUT
                                    ---                                        ---
   EVAPOTRANSPIRATION =         577169.85     EVAPOTRANSPIRATION =          24710.41
           STREAMFLOW =         200736.14             STREAMFLOW =           8027.03
     GW BOUNDARY FLOW =          20271.64       GW BOUNDARY FLOW =            724.02

   INFLOWS - OUTFLOWS =         272725.90     INFLOWS - OUTFLOWS =         -33461.46
             --------                                   --------

 TOTAL STORAGE CHANGE =         273621.41         STORAGE CHANGE =         -33431.64
       --------------                             --------------
         LAND SURFACE =          20571.53           LAND SURFACE =         -29890.85
            SOIL ZONE =         872082.25              SOIL ZONE =          18047.50
     UNSATURATED ZONE =        -546604.21       UNSATURATED ZONE =         -17920.16
       SATURATED ZONE =         -72428.16         SATURATED ZONE =          -3668.13

 OVERALL BUDGET ERROR =           -895.51           BUDGET ERROR =            -29.82


  PERCENT DISCREPANCY =             -0.08    PERCENT DISCREPANCY =             -0.09



1
 SUMMARY VOLUMETRIC BUDGET FOR GSFLOW 
 DATE: 11 04 1980              CUMULATIVE TIME STEP:      35
 MODFLOW STRESS PERIOD      2     CURRENT TIME STEP:      35     ITERATIONS:       5

 -----------------------------------------------------------------------------------

   CUMULATIVE VOLUMES               L**3   RATES FOR THIS TIME STEP           L**3/T
   ------------------                      ------------------------

                                     IN                                         IN
                                     --                                         --
        PRECIPITATION =        1070903.53          PRECIPITATION =                  
           STREAMFLOW =                               STREAMFLOW =                  
     GW BOUNDARY FLOW =                         GW BOUNDARY FLOW =                  


                                    OUT                                        OUT
                                    ---                                        ---
   EVAPOTRANSPIRATION =         908097.52     EVAPOTRANSPIRATION =          46967.74
           STREAMFLOW =         253781.12             STREAMFLOW =           7120.57
     GW BOUNDARY FLOW =          25338.99       GW BOUNDARY FLOW =            723.82

   INFLOWS - OUTFLOWS =        -116314.11     INFLOWS - OUTFLOWS =         -54812.14
             --------                                   --------

 TOTAL STORAGE CHANGE =        -115215.97         STORAGE CHANGE =         -54782.98
       --------------                             --------------
         LAND SURFACE =                             LAND SURFACE =                  
            SOIL ZONE =         655100.66              SOIL ZONE =         -33165.76
     UNSATURATED ZONE =        -669483.37       UNSATURATED ZONE =         -17302.97
       SATURATED ZONE =        -100833.26         SATURATED ZONE =          -4314.25

 OVERALL BUDGET ERROR =          -1098.14           BUDGET ERROR =            -29.16


  PERCENT DISCREPANCY =             -0.09    PERCENT DISCREPANCY =             -0.05



1
 SUMMARY VOLUMETRIC BUDGET FOR GSFLOW 
 DATE: 11 11 1980              CUMULATIVE TIME STEP:      42
 MODFLOW STRESS PERIOD      2     CURRENT TIME STEP:      42     ITERATIONS:       5

 -----------------------------------------------------------------------------------

   CUMULATIVE VOLUMES               L**3   RATES FOR THIS TIME STEP           L**3/T
   ------------------                      ------------------------

                                     IN                                         IN
                                     --                                         --
        PRECIPITATION =        1573762.54          PRECIPITATION =         255182.19
           STREAMFLOW =                               STREAMFLOW =                  
     GW BOUNDARY FLOW =                         GW BOUNDARY FLOW =                  


                                    OUT                                        OUT
                                    ---                                        ---
   EVAPOTRANSPIRATION =        1115762.38     EVAPOTRANSPIRATION =          18595.67
           STREAMFLOW =         311117.11             STREAMFLOW =          10970.58
     GW BOUNDARY FLOW =          30406.13       GW BOUNDARY FLOW =            724.11

   INFLOWS - OUTFLOWS =         116476.92     INFLOWS - OUTFLOWS =         224891.84
             --------                                   --------

 TOTAL STORAGE CHANGE =         117776.58         STORAGE CHANGE =         224920.30
       --------------                             --------------
         LAND SURFACE =          76960.22           LAND SURFACE =          76747.38
            SOIL ZONE =         959952.31              SOIL ZONE =         168722.79
     UNSATURATED ZONE =        -787492.04       UNSATURATED ZONE =         -16457.30
       SATURATED ZONE =        -131643.91         SATURATED ZONE =          -4092.56

 OVERALL BUDGET ERROR =          -1299.66           BUDGET ERROR =            -28.47


  PERCENT DISCREPANCY =             -0.08    PERCENT DISCREPANCY =             -0.01



1
 SUMMARY VOLUMETRIC BUDGET FOR GSFLOW 
 DATE: 11 18 1980              CUMULATIVE TIME STEP:      49
 MODFLOW STRESS PERIOD      2     CURRENT TIME STEP:      49     ITERATIONS:       5

 -----------------------------------------------------------------------------------

   CUMULATIVE VOLUMES               L**3   RATES FOR THIS TIME STEP           L**3/T
   ------------------                      ------------------------

                                     IN                                         IN
                                     --                                         --
        PRECIPITATION =        1573762.54          PRECIPITATION =                  
           STREAMFLOW =                               STREAMFLOW =                  
     GW BOUNDARY FLOW =                         GW BOUNDARY FLOW =                  


                                    OUT                                        OUT
                                    ---                                        ---
   EVAPOTRANSPIRATION =        1206321.25     EVAPOTRANSPIRATION =          16391.35
           STREAMFLOW =         374777.60             STREAMFLOW =           9278.56
     GW BOUNDARY FLOW =          35474.80       GW BOUNDARY FLOW =            724.11

   INFLOWS - OUTFLOWS =         -42811.11     INFLOWS - OUTFLOWS =         -26394.02
             --------                                   --------

 TOTAL STORAGE CHANGE =         -41314.63         STORAGE CHANGE =         -26366.23
       --------------                             --------------
         LAND SURFACE =           8139.47           LAND SURFACE =          -4965.50
            SOIL ZONE =        1016654.52              SOIL ZONE =           -461.69
     UNSATURATED ZONE =        -900833.04       UNSATURATED ZONE =         -15951.71
       SATURATED ZONE =        -165275.58         SATURATED ZONE =          -4987.33

 OVERALL BUDGET ERROR =          -1496.48           BUDGET ERROR =            -27.78


  PERCENT DISCREPANCY =             -0.09    PERCENT DISCREPANCY =             -0.11



1
 SUMMARY VOLUMETRIC BUDGET FOR GSFLOW 
 DATE: 11 25 1980              CUMULATIVE TIME STEP:      56
 MODFLOW STRESS PERIOD      2     CURRENT TIME STEP:      56     ITERATIONS:       7

 -----------------------------------------------------------------------------------

   CUMULATIVE VOLUMES               L**3   RATES FOR THIS TIME STEP           L**3/T
   ------------------                      ------------------------

                                     IN                                         IN
                                     --                                         --
        PRECIPITATION =        1648816.13          PRECIPITATION =                  
           STREAMFLOW =                               STREAMFLOW =                  
     GW BOUNDARY FLOW =                         GW BOUNDARY FLOW =                  


                                    OUT                                        OUT
                                    ---                                        ---
   EVAPOTRANSPIRATION =        1288491.22     EVAPOTRANSPIRATION =           9281.23
           STREAMFLOW =         439889.63             STREAMFLOW =           9397.02
     GW BOUNDARY FLOW =          40543.59       GW BOUNDARY FLOW =            724.12

   INFLOWS - OUTFLOWS =        -120108.31     INFLOWS - OUTFLOWS =         -19402.37
             --------                                   --------

 TOTAL STORAGE CHANGE =        -118440.78         STORAGE CHANGE =         -19381.05
       --------------                             --------------
         LAND SURFACE =          54136.41           LAND SURFACE =          -9258.02
            SOIL ZONE =        1040045.84              SOIL ZONE =          10778.49
     UNSATURATED ZONE =       -1010003.67       UNSATURATED ZONE =         -15326.21
       SATURATED ZONE =        -202619.35         SATURATED ZONE =          -5575.32

 OVERALL BUDGET ERROR =          -1667.54           BUDGET ERROR =            -21.32


  PERCENT DISCREPANCY =             -0.09    PERCENT DISCREPANCY =             -0.11



1
 SUMMARY VOLUMETRIC BUDGET FOR GSFLOW 
 DATE: 12 02 1980              CUMULATIVE TIME STEP:      63
 MODFLOW STRESS PERIOD      2     CURRENT TIME STEP:      63     ITERATIONS:       5

 -----------------------------------------------------------------------------------

   CUMULATIVE VOLUMES               L**3   RATES FOR THIS TIME STEP           L**3/T
   ------------------                      ------------------------

                                     IN                                         IN
                                     --                                         --
        PRECIPITATION =        2076621.55          PRECIPITATION =                  
           STREAMFLOW =                               STREAMFLOW =                  
     GW BOUNDARY FLOW =                         GW BOUNDARY FLOW =                  


                                    OUT                                        OUT
                                    ---                                        ---
   EVAPOTRANSPIRATION =        1477490.73     EVAPOTRANSPIRATION =          32852.96
           STREAMFLOW =         517055.53             STREAMFLOW =          13643.11
     GW BOUNDARY FLOW =          45613.70       GW BOUNDARY FLOW =            724.63

   INFLOWS - OUTFLOWS =          36461.59     INFLOWS - OUTFLOWS =         -47220.71
             --------                                   --------

 TOTAL STORAGE CHANGE =          38293.08         STORAGE CHANGE =         -47194.06
       --------------                             --------------
         LAND SURFACE =         157031.20           LAND SURFACE =         -76789.76
            SOIL ZONE =        1234103.95              SOIL ZONE =          47638.35
     UNSATURATED ZONE =       -1111911.78       UNSATURATED ZONE =         -13145.49
       SATURATED ZONE =        -240930.29         SATURATED ZONE =          -4897.16

 OVERALL BUDGET ERROR =          -1831.49           BUDGET ERROR =            -26.64


  PERCENT DISCREPANCY =             -0.09    PERCENT DISCREPANCY =             -0.06



1
 SUMMARY VOLUMETRIC BUDGET FOR GSFLOW 
 DATE: 12 09 1980              CUMULATIVE TIME STEP:      70
 MODFLOW STRESS PERIOD      2     CURRENT TIME STEP:      70     ITERATIONS:       5

 -----------------------------------------------------------------------------------

   CUMULATIVE VOLUMES               L**3   RATES FOR THIS TIME STEP           L**3/T
   ------------------                      ------------------------

                                     IN                                         IN
                                     --                                         --
        PRECIPITATION =        4284363.63          PRECIPITATION =                  
           STREAMFLOW =                               STREAMFLOW =                  
     GW BOUNDARY FLOW =                         GW BOUNDARY FLOW =                  


                                    OUT                                        OUT
                                    ---                                        ---
   EVAPOTRANSPIRATION =        1503129.51     EVAPOTRANSPIRATION =           3258.35
           STREAMFLOW =         606414.15             STREAMFLOW =          13150.52
     GW BOUNDARY FLOW =          50686.77       GW BOUNDARY FLOW =            724.82

   INFLOWS - OUTFLOWS =        2124133.21     INFLOWS - OUTFLOWS =         -17133.69
             --------                                   --------

 TOTAL STORAGE CHANGE =        2126143.91         STORAGE CHANGE =         -17107.29
       --------------                             --------------
         LAND SURFACE =        2337504.39           LAND SURFACE =          -3258.35
            SOIL ZONE =        1280003.60              SOIL ZONE =           6400.27
     UNSATURATED ZONE =       -1210036.09       UNSATURATED ZONE =         -14158.27
       SATURATED ZONE =        -281328.00         SATURATED ZONE =          -6090.94

 OVERALL BUDGET ERROR =          -2010.70           BUDGET ERROR =            -26.40


  PERCENT DISCREPANCY =             -0.05    PERCENT DISCREPANCY =             -0.15



1
 SUMMARY VOLUMETRIC BUDGET FOR GSFLOW 
 DATE: 12 16 1980              CUMULATIVE TIME STEP:      77
 MODFLOW STRESS PERIOD      2     CURRENT TIME STEP:      77     ITERATIONS:       5

 -----------------------------------------------------------------------------------

   CUMULATIVE VOLUMES               L**3   RATES FOR THIS TIME STEP           L**3/T
   ------------------                      ------------------------

                                     IN                                         IN
                                     --                                         --
        PRECIPITATION =        4284363.63          PRECIPITATION =                  
           STREAMFLOW =                               STREAMFLOW =                  
     GW BOUNDARY FLOW =                         GW BOUNDARY FLOW =                  


                                    OUT                                        OUT
                                    ---                                        ---
   EVAPOTRANSPIRATION =        1647130.89     EVAPOTRANSPIRATION =          33864.48
           STREAMFLOW =         716114.96             STREAMFLOW =          22886.77
     GW BOUNDARY FLOW =          55762.44       GW BOUNDARY FLOW =            725.66

   INFLOWS - OUTFLOWS =        1865355.34     INFLOWS - OUTFLOWS =         -57476.91
             --------                                   --------

 TOTAL STORAGE CHANGE =        1867552.92         STORAGE CHANGE =         -57449.86
       --------------                             --------------
         LAND SURFACE =        2017009.25           LAND SURFACE =        -133032.47
            SOIL ZONE =        1474349.63              SOIL ZONE =          89786.70
     UNSATURATED ZONE =       -1300508.18       UNSATURATED ZONE =          -9448.15
       SATURATED ZONE =        -323297.78         SATURATED ZONE =          -4755.95

 OVERALL BUDGET ERROR =          -2197.58           BUDGET ERROR =            -27.05


  PERCENT DISCREPANCY =             -0.05    PERCENT DISCREPANCY =             -0.05



1
 SUMMARY VOLUMETRIC BUDGET FOR GSFLOW 
 DATE: 12 23 1980              CUMULATIVE TIME STEP:      84
 MODFLOW STRESS PERIOD      2     CURRENT TIME STEP:      84     ITERATIONS:       6

 -----------------------------------------------------------------------------------

   CUMULATIVE VOLUMES               L**3   RATES FOR THIS TIME STEP           L**3/T
   ------------------                      ------------------------

                                     IN                                         IN
                                     --                                         --
        PRECIPITATION =        4516757.54          PRECIPITATION =                  
           STREAMFLOW =                               STREAMFLOW =                  
     GW BOUNDARY FLOW =                         GW BOUNDARY FLOW =                  


                                    OUT                                        OUT
                                    ---                                        ---
   EVAPOTRANSPIRATION =        1839785.67     EVAPOTRANSPIRATION =          33323.03
           STREAMFLOW =         937587.20             STREAMFLOW =          30449.71
     GW BOUNDARY FLOW =          60853.59       GW BOUNDARY FLOW =            728.04

   INFLOWS - OUTFLOWS =        1678531.07     INFLOWS - OUTFLOWS =         -64500.77
             --------                                   --------

 TOTAL STORAGE CHANGE =        1680877.19         STORAGE CHANGE =         -64483.21
       --------------                             --------------
         LAND SURFACE =        1383177.98           LAND SURFACE =         -50486.01
            SOIL ZONE =        1992917.23              SOIL ZONE =          -3689.70
     UNSATURATED ZONE =       -1343108.56       UNSATURATED ZONE =          -5813.24
       SATURATED ZONE =        -352109.46         SATURATED ZONE =          -4494.26

 OVERALL BUDGET ERROR =          -2346.11           BUDGET ERROR =            -17.56


  PERCENT DISCREPANCY =             -0.05    PERCENT DISCREPANCY =             -0.03



1
 SUMMARY VOLUMETRIC BUDGET FOR GSFLOW 
 DATE: 12 30 1980              CUMULATIVE TIME STEP:      91
 MODFLOW STRESS PERIOD      2     CURRENT TIME STEP:      91     ITERATIONS:       7

 -----------------------------------------------------------------------------------

   CUMULATIVE VOLUMES               L**3   RATES FOR THIS TIME STEP           L**3/T
   ------------------                      ------------------------

                                     IN                                         IN
                                     --                                         --
        PRECIPITATION =        4516757.54          PRECIPITATION =                  
           STREAMFLOW =                               STREAMFLOW =                  
     GW BOUNDARY FLOW =                         GW BOUNDARY FLOW =                  


                                    OUT                                        OUT
                                    ---                                        ---
   EVAPOTRANSPIRATION =        2153942.51     EVAPOTRANSPIRATION =          41221.09
           STREAMFLOW =        1187462.73             STREAMFLOW =          28314.50
     GW BOUNDARY FLOW =          65954.64       GW BOUNDARY FLOW =            728.70

   INFLOWS - OUTFLOWS =        1109397.65     INFLOWS - OUTFLOWS =         -70264.29
             --------                                   --------

 TOTAL STORAGE CHANGE =        1111842.61         STORAGE CHANGE =         -70252.42
       --------------                             --------------
         LAND SURFACE =         578219.84           LAND SURFACE =         -42013.04
            SOIL ZONE =        2258084.93              SOIL ZONE =         -21485.99
     UNSATURATED ZONE =       -1347682.14       UNSATURATED ZONE =          -2673.46
       SATURATED ZONE =        -376780.03         SATURATED ZONE =          -4079.93

 OVERALL BUDGET ERROR =          -2444.95           BUDGET ERROR =            -11.87


  PERCENT DISCREPANCY =             -0.05    PERCENT DISCREPANCY =             -0.02



1
 SUMMARY VOLUMETRIC BUDGET FOR GSFLOW 
 DATE: 01 06 1981              CUMULATIVE TIME STEP:      98
 MODFLOW STRESS PERIOD      2     CURRENT TIME STEP:      98     ITERATIONS:       6

 -----------------------------------------------------------------------------------

   CUMULATIVE VOLUMES               L**3   RATES FOR THIS TIME STEP           L**3/T
   ------------------                      ------------------------

                                     IN                                         IN
                                     --                                         --
        PRECIPITATION =        5004445.43          PRECIPITATION =                  
           STREAMFLOW =                               STREAMFLOW =                  
     GW BOUNDARY FLOW =                         GW BOUNDARY FLOW =                  


                                    OUT                                        OUT
                                    ---                                        ---
   EVAPOTRANSPIRATION =        2353645.31     EVAPOTRANSPIRATION =          18967.97
           STREAMFLOW =        1339133.19             STREAMFLOW =          20483.24
     GW BOUNDARY FLOW =          71048.06       GW BOUNDARY FLOW =            727.03

   INFLOWS - OUTFLOWS =        1240618.88     INFLOWS - OUTFLOWS =         -40178.25
             --------                                   --------

 TOTAL STORAGE CHANGE =        1243154.40         STORAGE CHANGE =         -40164.93
       --------------                             --------------
         LAND SURFACE =         839355.40           LAND SURFACE =         -25670.63
            SOIL ZONE =        2227757.43              SOIL ZONE =           2214.10
     UNSATURATED ZONE =       -1409791.49       UNSATURATED ZONE =         -10731.36
       SATURATED ZONE =        -414166.94         SATURATED ZONE =          -5977.04

 OVERALL BUDGET ERROR =          -2535.52           BUDGET ERROR =            -13.31


  PERCENT DISCREPANCY =             -0.05    PERCENT DISCREPANCY =             -0.03



1
 SUMMARY VOLUMETRIC BUDGET FOR GSFLOW 
 DATE: 01 13 1981              CUMULATIVE TIME STEP:     105
 MODFLOW STRESS PERIOD      2     CURRENT TIME STEP:     105     ITERATIONS:       5

 -----------------------------------------------------------------------------------

   CUMULATIVE VOLUMES               L**3   RATES FOR THIS TIME STEP           L**3/T
   ------------------                      ------------------------

                                     IN                                         IN
                                     --                                         --
        PRECIPITATION =        5004445.43          PRECIPITATION =                  
           STREAMFLOW =                               STREAMFLOW =                  
     GW BOUNDARY FLOW =                         GW BOUNDARY FLOW =                  


                                    OUT                                        OUT
                                    ---                                        ---
   EVAPOTRANSPIRATION =        2550391.84     EVAPOTRANSPIRATION =          40920.23
           STREAMFLOW =        1491202.62             STREAMFLOW =          22101.04
     GW BOUNDARY FLOW =          76135.85       GW BOUNDARY FLOW =            726.74

   INFLOWS - OUTFLOWS =         886715.13     INFLOWS - OUTFLOWS =         -63748.01
             --------                                   --------

 TOTAL STORAGE CHANGE =         889374.20         STORAGE CHANGE =         -63728.18
       --------------                             --------------
         LAND SURFACE =         592235.30           LAND SURFACE =         -46167.88
            SOIL ZONE =        2223599.89              SOIL ZONE =          -4603.17
     UNSATURATED ZONE =       -1469492.44       UNSATURATED ZONE =          -6744.55
       SATURATED ZONE =        -456968.54         SATURATED ZONE =          -6212.58

 OVERALL BUDGET ERROR =          -2659.08           BUDGET ERROR =            -19.83


  PERCENT DISCREPANCY =             -0.05    PERCENT DISCREPANCY =             -0.03



1
 SUMMARY VOLUMETRIC BUDGET FOR GSFLOW 
 DATE: 01 20 1981              CUMULATIVE TIME STEP:     112
 MODFLOW STRESS PERIOD      2     CURRENT TIME STEP:     112     ITERATIONS:       6

 -----------------------------------------------------------------------------------

   CUMULATIVE VOLUMES               L**3   RATES FOR THIS TIME STEP           L**3/T
   ------------------                      ------------------------

                                     IN                                         IN
                                     --                                         --
        PRECIPITATION =        5170466.84          PRECIPITATION =          41505.35
           STREAMFLOW =                               STREAMFLOW =                  
     GW BOUNDARY FLOW =                         GW BOUNDARY FLOW =                  


                                    OUT                                        OUT
                                    ---                                        ---
   EVAPOTRANSPIRATION =        2810648.87     EVAPOTRANSPIRATION =          30806.94
           STREAMFLOW =        1636096.78             STREAMFLOW =          20022.11
     GW BOUNDARY FLOW =          81221.50       GW BOUNDARY FLOW =            726.37

   INFLOWS - OUTFLOWS =         642499.68     INFLOWS - OUTFLOWS =         -10050.06
             --------                                   --------

 TOTAL STORAGE CHANGE =         645258.41         STORAGE CHANGE =         -10036.83
       --------------                             --------------
         LAND SURFACE =         441730.02           LAND SURFACE =           9579.04
            SOIL ZONE =        2201677.31              SOIL ZONE =         -11464.17
     UNSATURATED ZONE =       -1495687.79       UNSATURATED ZONE =          -1439.12
       SATURATED ZONE =        -502461.14         SATURATED ZONE =          -6712.58

 OVERALL BUDGET ERROR =          -2758.73           BUDGET ERROR =            -13.23


  PERCENT DISCREPANCY =             -0.05    PERCENT DISCREPANCY =             -0.03



1
 SUMMARY VOLUMETRIC BUDGET FOR GSFLOW 
 DATE: 01 27 1981              CUMULATIVE TIME STEP:     119
 MODFLOW STRESS PERIOD      2     CURRENT TIME STEP:     119     ITERATIONS:       5

 -----------------------------------------------------------------------------------

   CUMULATIVE VOLUMES               L**3   RATES FOR THIS TIME STEP           L**3/T
   ------------------                      ------------------------

                                     IN                                         IN
                                     --                                         --
        PRECIPITATION =        8646540.08          PRECIPITATION =        2936503.63
           STREAMFLOW =                               STREAMFLOW =                  
     GW BOUNDARY FLOW =                         GW BOUNDARY FLOW =                  


                                    OUT                                        OUT
                                    ---                                        ---
   EVAPOTRANSPIRATION =        3033967.17     EVAPOTRANSPIRATION =          12639.57
           STREAMFLOW =        1779003.62             STREAMFLOW =          18507.21
     GW BOUNDARY FLOW =          86305.60       GW BOUNDARY FLOW =            726.06

   INFLOWS - OUTFLOWS =        3747263.69     INFLOWS - OUTFLOWS =        2904630.79
             --------                                   --------

 TOTAL STORAGE CHANGE =        3750102.53         STORAGE CHANGE =        2904646.76
       --------------                             --------------
         LAND SURFACE =        3576156.45           LAND SURFACE =        2923864.12
            SOIL ZONE =        2208456.97              SOIL ZONE =          -6775.30
     UNSATURATED ZONE =       -1485882.42       UNSATURATED ZONE =          -5339.33
       SATURATED ZONE =        -548628.47         SATURATED ZONE =          -7102.73

 OVERALL BUDGET ERROR =          -2838.84           BUDGET ERROR =            -15.97


  PERCENT DISCREPANCY =             -0.03    PERCENT DISCREPANCY =             -0.00



1
 SUMMARY VOLUMETRIC BUDGET FOR GSFLOW 
 DATE: 02 03 1981              CUMULATIVE TIME STEP:     126
 MODFLOW STRESS PERIOD      2     CURRENT TIME STEP:     126     ITERATIONS:       7

 -----------------------------------------------------------------------------------

   CUMULATIVE VOLUMES               L**3   RATES FOR THIS TIME STEP           L**3/T
   ------------------                      ------------------------

                                     IN                                         IN
                                     --                                         --
        PRECIPITATION =        1.1739D+07          PRECIPITATION =                  
           STREAMFLOW =                               STREAMFLOW =                  
     GW BOUNDARY FLOW =                         GW BOUNDARY FLOW =                  


                                    OUT                                        OUT
                                    ---                                        ---
   EVAPOTRANSPIRATION =        3069158.53     EVAPOTRANSPIRATION =           7106.06
           STREAMFLOW =        1905346.36             STREAMFLOW =          17977.53
     GW BOUNDARY FLOW =          91386.91       GW BOUNDARY FLOW =            725.84

   INFLOWS - OUTFLOWS =        6672796.97     INFLOWS - OUTFLOWS =         -25809.43
             --------                                   --------

 TOTAL STORAGE CHANGE =        6675712.64         STORAGE CHANGE =         -25801.11
       --------------                             --------------
         LAND SURFACE =        6633113.78           LAND SURFACE =          -7106.06
            SOIL ZONE =        2199094.44              SOIL ZONE =            523.18
     UNSATURATED ZONE =       -1555283.02       UNSATURATED ZONE =         -11363.21
       SATURATED ZONE =        -601212.56         SATURATED ZONE =          -7855.01

 OVERALL BUDGET ERROR =          -2915.68           BUDGET ERROR =             -8.32


  PERCENT DISCREPANCY =             -0.02    PERCENT DISCREPANCY =             -0.03



1
 SUMMARY VOLUMETRIC BUDGET FOR GSFLOW 
 DATE: 02 10 1981              CUMULATIVE TIME STEP:     133
 MODFLOW STRESS PERIOD      2     CURRENT TIME STEP:     133     ITERATIONS:       5

 -----------------------------------------------------------------------------------

   CUMULATIVE VOLUMES               L**3   RATES FOR THIS TIME STEP           L**3/T
   ------------------                      ------------------------

                                     IN                                         IN
                                     --                                         --
        PRECIPITATION =        1.1838D+07          PRECIPITATION =                  
           STREAMFLOW =                               STREAMFLOW =                  
     GW BOUNDARY FLOW =                         GW BOUNDARY FLOW =                  


                                    OUT                                        OUT
                                    ---                                        ---
   EVAPOTRANSPIRATION =        3190262.04     EVAPOTRANSPIRATION =          32343.27
           STREAMFLOW =        2031389.77             STREAMFLOW =          18030.34
     GW BOUNDARY FLOW =          96467.84       GW BOUNDARY FLOW =            725.84

   INFLOWS - OUTFLOWS =        6520133.63     INFLOWS - OUTFLOWS =         -51099.45
             --------                                   --------

 TOTAL STORAGE CHANGE =        6523147.45         STORAGE CHANGE =         -51081.40
       --------------                             --------------
         LAND SURFACE =        6611574.78           LAND SURFACE =         -32343.27
            SOIL ZONE =        2203331.19              SOIL ZONE =            542.84
     UNSATURATED ZONE =       -1631812.24       UNSATURATED ZONE =         -10648.97
       SATURATED ZONE =        -659946.28         SATURATED ZONE =          -8632.00

 OVERALL BUDGET ERROR =          -3013.82           BUDGET ERROR =            -18.05


  PERCENT DISCREPANCY =             -0.03    PERCENT DISCREPANCY =             -0.04



1
 SUMMARY VOLUMETRIC BUDGET FOR GSFLOW 
 DATE: 02 17 1981              CUMULATIVE TIME STEP:     140
 MODFLOW STRESS PERIOD      2     CURRENT TIME STEP:     140     ITERATIONS:      10

 -----------------------------------------------------------------------------------

   CUMULATIVE VOLUMES               L**3   RATES FOR THIS TIME STEP           L**3/T
   ------------------                      ------------------------

                                     IN                                         IN
                                     --                                         --
        PRECIPITATION =        1.2765D+07          PRECIPITATION =          68929.28
           STREAMFLOW =                               STREAMFLOW =                  
     GW BOUNDARY FLOW =                         GW BOUNDARY FLOW =                  


                                    OUT                                        OUT
                                    ---                                        ---
   EVAPOTRANSPIRATION =        3511234.68     EVAPOTRANSPIRATION =          57075.59
           STREAMFLOW =        2552169.83             STREAMFLOW =         122228.02
     GW BOUNDARY FLOW =         101576.03       GW BOUNDARY FLOW =            734.27

   INFLOWS - OUTFLOWS =        6599988.57     INFLOWS - OUTFLOWS =        -111108.60
             --------                                   --------

 TOTAL STORAGE CHANGE =        6603108.42         STORAGE CHANGE =        -111096.08
       --------------                             --------------
         LAND SURFACE =        5715708.50           LAND SURFACE =        -263689.91
            SOIL ZONE =        2955682.60              SOIL ZONE =          72104.93
     UNSATURATED ZONE =       -1389192.03       UNSATURATED ZONE =          78270.49
       SATURATED ZONE =        -679090.65         SATURATED ZONE =           2218.41

 OVERALL BUDGET ERROR =          -3119.85           BUDGET ERROR =            -12.52


  PERCENT DISCREPANCY =             -0.02    PERCENT DISCREPANCY =             -0.01



1
 SUMMARY VOLUMETRIC BUDGET FOR GSFLOW 
 DATE: 02 24 1981              CUMULATIVE TIME STEP:     147
 MODFLOW STRESS PERIOD      2     CURRENT TIME STEP:     147     ITERATIONS:       8

 -----------------------------------------------------------------------------------

   CUMULATIVE VOLUMES               L**3   RATES FOR THIS TIME STEP           L**3/T
   ------------------                      ------------------------

                                     IN                                         IN
                                     --                                         --
        PRECIPITATION =        1.3179D+07          PRECIPITATION =         344646.37
           STREAMFLOW =                               STREAMFLOW =                  
     GW BOUNDARY FLOW =                         GW BOUNDARY FLOW =                  


                                    OUT                                        OUT
                                    ---                                        ---
   EVAPOTRANSPIRATION =        3820186.79     EVAPOTRANSPIRATION =          18156.56
           STREAMFLOW =        3116020.26             STREAMFLOW =          51958.80
     GW BOUNDARY FLOW =         106711.92       GW BOUNDARY FLOW =            732.34

   INFLOWS - OUTFLOWS =        6135625.78     INFLOWS - OUTFLOWS =         273798.67
             --------                                   --------

 TOTAL STORAGE CHANGE =        6138767.76         STORAGE CHANGE =         273791.84
       --------------                             --------------
         LAND SURFACE =        5116336.78           LAND SURFACE =         302139.62
            SOIL ZONE =        2699677.15              SOIL ZONE =         -60914.27
     UNSATURATED ZONE =       -1022958.11       UNSATURATED ZONE =          29847.75
       SATURATED ZONE =        -654288.05         SATURATED ZONE =           2718.74

 OVERALL BUDGET ERROR =          -3141.98           BUDGET ERROR =              6.83


  PERCENT DISCREPANCY =             -0.02    PERCENT DISCREPANCY =              0.00



1
 SUMMARY VOLUMETRIC BUDGET FOR GSFLOW 
 DATE: 03 03 1981              CUMULATIVE TIME STEP:     154
 MODFLOW STRESS PERIOD      2     CURRENT TIME STEP:     154     ITERATIONS:       7

 -----------------------------------------------------------------------------------

   CUMULATIVE VOLUMES               L**3   RATES FOR THIS TIME STEP           L**3/T
   ------------------                      ------------------------

                                     IN                                         IN
                                     --                                         --
        PRECIPITATION =        1.3447D+07          PRECIPITATION =                  
           STREAMFLOW =                               STREAMFLOW =                  
     GW BOUNDARY FLOW =                         GW BOUNDARY FLOW =                  


                                    OUT                                        OUT
                                    ---                                        ---
   EVAPOTRANSPIRATION =        3966901.28     EVAPOTRANSPIRATION =          40572.52
           STREAMFLOW =        3339857.63             STREAMFLOW =          27472.64
     GW BOUNDARY FLOW =         111819.98       GW BOUNDARY FLOW =            728.45

   INFLOWS - OUTFLOWS =        6028024.14     INFLOWS - OUTFLOWS =         -68773.62
             --------                                   --------

 TOTAL STORAGE CHANGE =        6031116.00         STORAGE CHANGE =         -68783.13
       --------------                             --------------
         LAND SURFACE =        5217796.91           LAND SURFACE =         -58558.95
            SOIL ZONE =        2485124.78              SOIL ZONE =            712.00
     UNSATURATED ZONE =       -1015744.03       UNSATURATED ZONE =          -9284.73
       SATURATED ZONE =        -656061.66         SATURATED ZONE =          -1651.45

 OVERALL BUDGET ERROR =          -3091.86           BUDGET ERROR =              9.52


  PERCENT DISCREPANCY =             -0.02    PERCENT DISCREPANCY =              0.01



1
 SUMMARY VOLUMETRIC BUDGET FOR GSFLOW 
 DATE: 03 10 1981              CUMULATIVE TIME STEP:     161
 MODFLOW STRESS PERIOD      2     CURRENT TIME STEP:     161     ITERATIONS:       7

 -----------------------------------------------------------------------------------

   CUMULATIVE VOLUMES               L**3   RATES FOR THIS TIME STEP           L**3/T
   ------------------                      ------------------------

                                     IN                                         IN
                                     --                                         --
        PRECIPITATION =        1.3493D+07          PRECIPITATION =                  
           STREAMFLOW =                               STREAMFLOW =                  
     GW BOUNDARY FLOW =                         GW BOUNDARY FLOW =                  


                                    OUT                                        OUT
                                    ---                                        ---
   EVAPOTRANSPIRATION =        4257437.36     EVAPOTRANSPIRATION =          60219.02
           STREAMFLOW =        3569259.65             STREAMFLOW =          42686.29
     GW BOUNDARY FLOW =         116918.23       GW BOUNDARY FLOW =            729.13

   INFLOWS - OUTFLOWS =        5549325.91     INFLOWS - OUTFLOWS =        -103634.44
             --------                                   --------

 TOTAL STORAGE CHANGE =        5552405.37         STORAGE CHANGE =        -103634.66
       --------------                             --------------
         LAND SURFACE =        4626388.03           LAND SURFACE =        -150369.62
            SOIL ZONE =        2593753.71              SOIL ZONE =          29621.28
     UNSATURATED ZONE =        -999699.43       UNSATURATED ZONE =          17811.66
       SATURATED ZONE =        -668036.94         SATURATED ZONE =           -697.97

 OVERALL BUDGET ERROR =          -3079.46           BUDGET ERROR =              0.22


  PERCENT DISCREPANCY =             -0.02    PERCENT DISCREPANCY =              0.00



1
 SUMMARY VOLUMETRIC BUDGET FOR GSFLOW 
 DATE: 03 17 1981              CUMULATIVE TIME STEP:     168
 MODFLOW STRESS PERIOD      2     CURRENT TIME STEP:     168     ITERATIONS:       7

 -----------------------------------------------------------------------------------

   CUMULATIVE VOLUMES               L**3   RATES FOR THIS TIME STEP           L**3/T
   ------------------                      ------------------------

                                     IN                                         IN
                                     --                                         --
        PRECIPITATION =        1.3744D+07          PRECIPITATION =                  
           STREAMFLOW =                               STREAMFLOW =                  
     GW BOUNDARY FLOW =                         GW BOUNDARY FLOW =                  


                                    OUT                                        OUT
                                    ---                                        ---
   EVAPOTRANSPIRATION =        4572098.00     EVAPOTRANSPIRATION =          33262.65
           STREAMFLOW =        3794831.78             STREAMFLOW =          24170.41
     GW BOUNDARY FLOW =         122018.91       GW BOUNDARY FLOW =            727.92

   INFLOWS - OUTFLOWS =        5255542.19     INFLOWS - OUTFLOWS =         -58160.98
             --------                                   --------

 TOTAL STORAGE CHANGE =        5258602.09         STORAGE CHANGE =         -58159.52
       --------------                             --------------
         LAND SURFACE =        4488004.50           LAND SURFACE =         -32994.50
            SOIL ZONE =        2440637.98              SOIL ZONE =          -5980.17
     UNSATURATED ZONE =        -983622.02       UNSATURATED ZONE =         -14696.77
       SATURATED ZONE =        -686418.37         SATURATED ZONE =          -4488.07

 OVERALL BUDGET ERROR =          -3059.90           BUDGET ERROR =             -1.47


  PERCENT DISCREPANCY =             -0.02    PERCENT DISCREPANCY =             -0.00



1
 SUMMARY VOLUMETRIC BUDGET FOR GSFLOW 
 DATE: 03 24 1981              CUMULATIVE TIME STEP:     175
 MODFLOW STRESS PERIOD      2     CURRENT TIME STEP:     175     ITERATIONS:       6

 -----------------------------------------------------------------------------------

   CUMULATIVE VOLUMES               L**3   RATES FOR THIS TIME STEP           L**3/T
   ------------------                      ------------------------

                                     IN                                         IN
                                     --                                         --
        PRECIPITATION =        1.4367D+07          PRECIPITATION =                  
           STREAMFLOW =                               STREAMFLOW =                  
     GW BOUNDARY FLOW =                         GW BOUNDARY FLOW =                  


                                    OUT                                        OUT
                                    ---                                        ---
   EVAPOTRANSPIRATION =        4891921.27     EVAPOTRANSPIRATION =          80764.17
           STREAMFLOW =        3965101.66             STREAMFLOW =          26919.56
     GW BOUNDARY FLOW =         127110.46       GW BOUNDARY FLOW =            727.33

   INFLOWS - OUTFLOWS =        5382612.13     INFLOWS - OUTFLOWS =        -108411.05
             --------                                   --------

 TOTAL STORAGE CHANGE =        5385692.47         STORAGE CHANGE =        -108408.63
       --------------                             --------------
         LAND SURFACE =        4818411.00           LAND SURFACE =         -67945.82
            SOIL ZONE =        2353155.82              SOIL ZONE =         -30934.08
     UNSATURATED ZONE =       -1063355.88       UNSATURATED ZONE =          -4276.75
       SATURATED ZONE =        -722518.47         SATURATED ZONE =          -5251.98

 OVERALL BUDGET ERROR =          -3080.34           BUDGET ERROR =             -2.42


  PERCENT DISCREPANCY =             -0.02    PERCENT DISCREPANCY =             -0.00



1
 SUMMARY VOLUMETRIC BUDGET FOR GSFLOW 
 DATE: 03 31 1981              CUMULATIVE TIME STEP:     182
 MODFLOW STRESS PERIOD      2     CURRENT TIME STEP:     182     ITERATIONS:       8

 -----------------------------------------------------------------------------------

   CUMULATIVE VOLUMES               L**3   RATES FOR THIS TIME STEP           L**3/T
   ------------------                      ------------------------

                                     IN                                         IN
                                     --                                         --
        PRECIPITATION =        1.5777D+07          PRECIPITATION =                  
           STREAMFLOW =                               STREAMFLOW =                  
     GW BOUNDARY FLOW =                         GW BOUNDARY FLOW =                  


                                    OUT                                        OUT
                                    ---                                        ---
   EVAPOTRANSPIRATION =        5280094.57     EVAPOTRANSPIRATION =          42424.06
           STREAMFLOW =        4438009.54             STREAMFLOW =          35648.91
     GW BOUNDARY FLOW =         132228.15       GW BOUNDARY FLOW =            729.99

   INFLOWS - OUTFLOWS =        5926415.73     INFLOWS - OUTFLOWS =         -78802.95
             --------                                   --------

 TOTAL STORAGE CHANGE =        5929491.62         STORAGE CHANGE =         -78809.16
       --------------                             --------------
         LAND SURFACE =        4995013.66           LAND SURFACE =         -43258.15
            SOIL ZONE =        2519891.86              SOIL ZONE =         -36971.19
     UNSATURATED ZONE =        -862293.64       UNSATURATED ZONE =           3358.62
       SATURATED ZONE =        -723120.27         SATURATED ZONE =          -1938.45

 OVERALL BUDGET ERROR =          -3075.89           BUDGET ERROR =              6.21


  PERCENT DISCREPANCY =             -0.02    PERCENT DISCREPANCY =              0.01



1
 SUMMARY VOLUMETRIC BUDGET FOR GSFLOW 
 DATE: 04 07 1981              CUMULATIVE TIME STEP:     189
 MODFLOW STRESS PERIOD      2     CURRENT TIME STEP:     189     ITERATIONS:       7

 -----------------------------------------------------------------------------------

   CUMULATIVE VOLUMES               L**3   RATES FOR THIS TIME STEP           L**3/T
   ------------------                      ------------------------

                                     IN                                         IN
                                     --                                         --
        PRECIPITATION =        1.6121D+07          PRECIPITATION =                  
           STREAMFLOW =                               STREAMFLOW =                  
     GW BOUNDARY FLOW =                         GW BOUNDARY FLOW =                  


                                    OUT                                        OUT
                                    ---                                        ---
   EVAPOTRANSPIRATION =        5874543.38     EVAPOTRANSPIRATION =          97287.85
           STREAMFLOW =        4750640.37             STREAMFLOW =          43848.41
     GW BOUNDARY FLOW =         137338.65       GW BOUNDARY FLOW =            730.46

   INFLOWS - OUTFLOWS =        5358945.21     INFLOWS - OUTFLOWS =        -141866.72
             --------                                   --------

 TOTAL STORAGE CHANGE =        5361996.80         STORAGE CHANGE =        -141872.48
       --------------                             --------------
         LAND SURFACE =        4409576.19           LAND SURFACE =        -135979.39
            SOIL ZONE =        2471534.16              SOIL ZONE =         -17309.18
     UNSATURATED ZONE =        -792506.86       UNSATURATED ZONE =          11845.59
       SATURATED ZONE =        -726606.68         SATURATED ZONE =           -429.50

 OVERALL BUDGET ERROR =          -3051.59           BUDGET ERROR =              5.76


  PERCENT DISCREPANCY =             -0.02    PERCENT DISCREPANCY =              0.00



1
 SUMMARY VOLUMETRIC BUDGET FOR GSFLOW 
 DATE: 04 14 1981              CUMULATIVE TIME STEP:     196
 MODFLOW STRESS PERIOD      2     CURRENT TIME STEP:     196     ITERATIONS:       9

 -----------------------------------------------------------------------------------

   CUMULATIVE VOLUMES               L**3   RATES FOR THIS TIME STEP           L**3/T
   ------------------                      ------------------------

                                     IN                                         IN
                                     --                                         --
        PRECIPITATION =        1.6121D+07          PRECIPITATION =                  
           STREAMFLOW =                               STREAMFLOW =                  
     GW BOUNDARY FLOW =                         GW BOUNDARY FLOW =                  


                                    OUT                                        OUT
                                    ---                                        ---
   EVAPOTRANSPIRATION =        6737972.54     EVAPOTRANSPIRATION =         187136.52
           STREAMFLOW =        5085551.38             STREAMFLOW =          59124.40
     GW BOUNDARY FLOW =         142451.64       GW BOUNDARY FLOW =            730.74

   INFLOWS - OUTFLOWS =        4155492.05     INFLOWS - OUTFLOWS =        -246991.66
             --------                                   --------

 TOTAL STORAGE CHANGE =        4158521.62         STORAGE CHANGE =        -246991.57
       --------------                             --------------
         LAND SURFACE =        3163115.26           LAND SURFACE =        -267326.82
            SOIL ZONE =        2407088.36              SOIL ZONE =          -6630.00
     UNSATURATED ZONE =        -687426.96       UNSATURATED ZONE =          24787.75
       SATURATED ZONE =        -724255.04         SATURATED ZONE =           2177.49

 OVERALL BUDGET ERROR =          -3029.57           BUDGET ERROR =             -0.08


  PERCENT DISCREPANCY =             -0.02    PERCENT DISCREPANCY =             -0.00



1
 SUMMARY VOLUMETRIC BUDGET FOR GSFLOW 
 DATE: 04 21 1981              CUMULATIVE TIME STEP:     203
 MODFLOW STRESS PERIOD      2     CURRENT TIME STEP:     203     ITERATIONS:      11

 -----------------------------------------------------------------------------------

   CUMULATIVE VOLUMES               L**3   RATES FOR THIS TIME STEP           L**3/T
   ------------------                      ------------------------

                                     IN                                         IN
                                     --                                         --
        PRECIPITATION =        1.6310D+07          PRECIPITATION =                  
           STREAMFLOW =                               STREAMFLOW =                  
     GW BOUNDARY FLOW =                         GW BOUNDARY FLOW =                  


                                    OUT                                        OUT
                                    ---                                        ---
   EVAPOTRANSPIRATION =        7768688.43     EVAPOTRANSPIRATION =         145735.19
           STREAMFLOW =        5460344.92             STREAMFLOW =          52209.18
     GW BOUNDARY FLOW =         147562.20       GW BOUNDARY FLOW =            729.63

   INFLOWS - OUTFLOWS =        2933647.09     INFLOWS - OUTFLOWS =        -198674.00
             --------                                   --------

 TOTAL STORAGE CHANGE =        2936669.89         STORAGE CHANGE =        -198673.26
       --------------                             --------------
         LAND SURFACE =        1895745.75           LAND SURFACE =        -137193.58
            SOIL ZONE =        2285965.45              SOIL ZONE =         -87261.66
     UNSATURATED ZONE =        -539432.90       UNSATURATED ZONE =          22150.52
       SATURATED ZONE =        -705608.41         SATURATED ZONE =           3631.45

 OVERALL BUDGET ERROR =          -3022.80           BUDGET ERROR =             -0.74


  PERCENT DISCREPANCY =             -0.02    PERCENT DISCREPANCY =             -0.00



1
 SUMMARY VOLUMETRIC BUDGET FOR GSFLOW 
 DATE: 04 28 1981              CUMULATIVE TIME STEP:     210
 MODFLOW STRESS PERIOD      2     CURRENT TIME STEP:     210     ITERATIONS:      10

 -----------------------------------------------------------------------------------

   CUMULATIVE VOLUMES               L**3   RATES FOR THIS TIME STEP           L**3/T
   ------------------                      ------------------------

                                     IN                                         IN
                                     --                                         --
        PRECIPITATION =        1.6515D+07          PRECIPITATION =                  
           STREAMFLOW =                               STREAMFLOW =                  
     GW BOUNDARY FLOW =                         GW BOUNDARY FLOW =                  


                                    OUT                                        OUT
                                    ---                                        ---
   EVAPOTRANSPIRATION =        9000846.48     EVAPOTRANSPIRATION =         203957.28
           STREAMFLOW =        5713167.43             STREAMFLOW =          29702.34
     GW BOUNDARY FLOW =         152658.87       GW BOUNDARY FLOW =            726.93

   INFLOWS - OUTFLOWS =        1648760.10     INFLOWS - OUTFLOWS =        -234386.55
             --------                                   --------

 TOTAL STORAGE CHANGE =        1651756.85         STORAGE CHANGE =        -234387.64
       --------------                             --------------
         LAND SURFACE =        1024283.95           LAND SURFACE =        -106048.68
            SOIL ZONE =        1811819.80              SOIL ZONE =        -132720.75
     UNSATURATED ZONE =        -493964.54       UNSATURATED ZONE =           2847.93
       SATURATED ZONE =        -690382.36         SATURATED ZONE =           1533.86

 OVERALL BUDGET ERROR =          -2996.74           BUDGET ERROR =              1.09


  PERCENT DISCREPANCY =             -0.02    PERCENT DISCREPANCY =              0.00



1
 SUMMARY VOLUMETRIC BUDGET FOR GSFLOW 
 DATE: 05 05 1981              CUMULATIVE TIME STEP:     217
 MODFLOW STRESS PERIOD      2     CURRENT TIME STEP:     217     ITERATIONS:       9

 -----------------------------------------------------------------------------------

   CUMULATIVE VOLUMES               L**3   RATES FOR THIS TIME STEP           L**3/T
   ------------------                      ------------------------

                                     IN                                         IN
                                     --                                         --
        PRECIPITATION =        1.6515D+07          PRECIPITATION =                  
           STREAMFLOW =                               STREAMFLOW =                  
     GW BOUNDARY FLOW =                         GW BOUNDARY FLOW =                  


                                    OUT                                        OUT
                                    ---                                        ---
   EVAPOTRANSPIRATION =        9853273.33     EVAPOTRANSPIRATION =          46784.43
           STREAMFLOW =        5834074.61             STREAMFLOW =          11543.27
     GW BOUNDARY FLOW =         157737.36       GW BOUNDARY FLOW =            724.45

   INFLOWS - OUTFLOWS =         670347.58     INFLOWS - OUTFLOWS =         -59052.15
             --------                                   --------

 TOTAL STORAGE CHANGE =         673355.24         STORAGE CHANGE =         -59050.19
       --------------                             --------------
         LAND SURFACE =         572034.81           LAND SURFACE =         -19134.04
            SOIL ZONE =        1364889.72              SOIL ZONE =         -23090.68
     UNSATURATED ZONE =        -564589.87       UNSATURATED ZONE =         -14446.00
       SATURATED ZONE =        -698979.41         SATURATED ZONE =          -2379.46

 OVERALL BUDGET ERROR =          -3007.66           BUDGET ERROR =             -1.96


  PERCENT DISCREPANCY =             -0.02    PERCENT DISCREPANCY =             -0.00



1
 SUMMARY VOLUMETRIC BUDGET FOR GSFLOW 
 DATE: 05 12 1981              CUMULATIVE TIME STEP:     224
 MODFLOW STRESS PERIOD      2     CURRENT TIME STEP:     224     ITERATIONS:      10

 -----------------------------------------------------------------------------------

   CUMULATIVE VOLUMES               L**3   RATES FOR THIS TIME STEP           L**3/T
   ------------------                      ------------------------

                                     IN                                         IN
                                     --                                         --
        PRECIPITATION =        1.6515D+07          PRECIPITATION =                  
           STREAMFLOW =                               STREAMFLOW =                  
     GW BOUNDARY FLOW =                         GW BOUNDARY FLOW =                  


                                    OUT                                        OUT
                                    ---                                        ---
   EVAPOTRANSPIRATION =        1.0376D+07     EVAPOTRANSPIRATION =         100969.34
           STREAMFLOW =        5914220.52             STREAMFLOW =          12697.06
     GW BOUNDARY FLOW =         162804.81       GW BOUNDARY FLOW =            723.84

   INFLOWS - OUTFLOWS =          62242.36     INFLOWS - OUTFLOWS =        -114390.24
             --------                                   --------

 TOTAL STORAGE CHANGE =          65284.03         STORAGE CHANGE =        -114384.55
       --------------                             --------------
         LAND SURFACE =         357792.99           LAND SURFACE =         -38759.51
            SOIL ZONE =        1089190.30              SOIL ZONE =         -60467.85
     UNSATURATED ZONE =        -656838.36       UNSATURATED ZONE =         -10559.50
       SATURATED ZONE =        -724860.90         SATURATED ZONE =          -4597.70

 OVERALL BUDGET ERROR =          -3041.67           BUDGET ERROR =             -5.69


  PERCENT DISCREPANCY =             -0.02    PERCENT DISCREPANCY =             -0.00



1
 SUMMARY VOLUMETRIC BUDGET FOR GSFLOW 
 DATE: 05 19 1981              CUMULATIVE TIME STEP:     231
 MODFLOW STRESS PERIOD      2     CURRENT TIME STEP:     231     ITERATIONS:      12

 -----------------------------------------------------------------------------------

   CUMULATIVE VOLUMES               L**3   RATES FOR THIS TIME STEP           L**3/T
   ------------------                      ------------------------

                                     IN                                         IN
                                     --                                         --
        PRECIPITATION =        1.7837D+07          PRECIPITATION =         169045.43
           STREAMFLOW =                               STREAMFLOW =                  
     GW BOUNDARY FLOW =                         GW BOUNDARY FLOW =                  


                                    OUT                                        OUT
                                    ---                                        ---
   EVAPOTRANSPIRATION =        1.0714D+07     EVAPOTRANSPIRATION =          31098.89
           STREAMFLOW =        6066852.11             STREAMFLOW =          31371.00
     GW BOUNDARY FLOW =         167874.93       GW BOUNDARY FLOW =            725.89

   INFLOWS - OUTFLOWS =         888050.96     INFLOWS - OUTFLOWS =         105849.65
             --------                                   --------

 TOTAL STORAGE CHANGE =         891129.55         STORAGE CHANGE =         105854.61
       --------------                             --------------
         LAND SURFACE =         311384.15           LAND SURFACE =          16931.99
            SOIL ZONE =        2035436.94              SOIL ZONE =          86282.39
     UNSATURATED ZONE =        -696424.39       UNSATURATED ZONE =           6712.08
       SATURATED ZONE =        -759267.15         SATURATED ZONE =          -4071.84

 OVERALL BUDGET ERROR =          -3078.59           BUDGET ERROR =             -4.97


  PERCENT DISCREPANCY =             -0.02    PERCENT DISCREPANCY =             -0.00



1
 SUMMARY VOLUMETRIC BUDGET FOR GSFLOW 
 DATE: 05 26 1981              CUMULATIVE TIME STEP:     238
 MODFLOW STRESS PERIOD      2     CURRENT TIME STEP:     238     ITERATIONS:      10

 -----------------------------------------------------------------------------------

   CUMULATIVE VOLUMES               L**3   RATES FOR THIS TIME STEP           L**3/T
   ------------------                      ------------------------

                                     IN                                         IN
                                     --                                         --
        PRECIPITATION =        1.8252D+07          PRECIPITATION =         284303.67
           STREAMFLOW =                               STREAMFLOW =                  
     GW BOUNDARY FLOW =                         GW BOUNDARY FLOW =                  


                                    OUT                                        OUT
                                    ---                                        ---
   EVAPOTRANSPIRATION =        1.1511D+07     EVAPOTRANSPIRATION =         126247.52
           STREAMFLOW =        6204097.33             STREAMFLOW =          24035.46
     GW BOUNDARY FLOW =         172948.88       GW BOUNDARY FLOW =            724.59

   INFLOWS - OUTFLOWS =         363800.41     INFLOWS - OUTFLOWS =         133296.10
             --------                                   --------

 TOTAL STORAGE CHANGE =         366909.44         STORAGE CHANGE =         133301.02
       --------------                             --------------
         LAND SURFACE =         193288.32           LAND SURFACE =         -13054.26
            SOIL ZONE =        1698527.09              SOIL ZONE =         158422.32
     UNSATURATED ZONE =        -726039.07       UNSATURATED ZONE =          -6682.91
       SATURATED ZONE =        -798866.89         SATURATED ZONE =          -5384.14

 OVERALL BUDGET ERROR =          -3109.03           BUDGET ERROR =             -4.92


  PERCENT DISCREPANCY =             -0.02    PERCENT DISCREPANCY =             -0.00



1
 SUMMARY VOLUMETRIC BUDGET FOR GSFLOW 
 DATE: 06 02 1981              CUMULATIVE TIME STEP:     245
 MODFLOW STRESS PERIOD      2     CURRENT TIME STEP:     245     ITERATIONS:       9

 -----------------------------------------------------------------------------------

   CUMULATIVE VOLUMES               L**3   RATES FOR THIS TIME STEP           L**3/T
   ------------------                      ------------------------

                                     IN                                         IN
                                     --                                         --
        PRECIPITATION =        1.8318D+07          PRECIPITATION =          50869.96
           STREAMFLOW =                               STREAMFLOW =                  
     GW BOUNDARY FLOW =                         GW BOUNDARY FLOW =                  


                                    OUT                                        OUT
                                    ---                                        ---
   EVAPOTRANSPIRATION =        1.2339D+07     EVAPOTRANSPIRATION =          66599.41
           STREAMFLOW =        6289994.79             STREAMFLOW =           9072.49
     GW BOUNDARY FLOW =         178014.82       GW BOUNDARY FLOW =            723.02

   INFLOWS - OUTFLOWS =        -488853.04     INFLOWS - OUTFLOWS =         -25524.96
             --------                                   --------

 TOTAL STORAGE CHANGE =        -485700.74         STORAGE CHANGE =         -25518.45
       --------------                             --------------
         LAND SURFACE =         117089.11           LAND SURFACE =          25874.21
            SOIL ZONE =        1052424.27              SOIL ZONE =         -31183.42
     UNSATURATED ZONE =        -806061.08       UNSATURATED ZONE =         -12626.30
       SATURATED ZONE =        -849153.04         SATURATED ZONE =          -7582.95

 OVERALL BUDGET ERROR =          -3152.29           BUDGET ERROR =             -6.51


  PERCENT DISCREPANCY =             -0.02    PERCENT DISCREPANCY =             -0.01



1
 SUMMARY VOLUMETRIC BUDGET FOR GSFLOW 
 DATE: 06 09 1981              CUMULATIVE TIME STEP:     252
 MODFLOW STRESS PERIOD      2     CURRENT TIME STEP:     252     ITERATIONS:      10

 -----------------------------------------------------------------------------------

   CUMULATIVE VOLUMES               L**3   RATES FOR THIS TIME STEP           L**3/T
   ------------------                      ------------------------

                                     IN                                         IN
                                     --                                         --
        PRECIPITATION =        1.8318D+07          PRECIPITATION =                  
           STREAMFLOW =                               STREAMFLOW =                  
     GW BOUNDARY FLOW =                         GW BOUNDARY FLOW =                  


                                    OUT                                        OUT
                                    ---                                        ---
   EVAPOTRANSPIRATION =        1.2887D+07     EVAPOTRANSPIRATION =          55641.46
           STREAMFLOW =        6344685.20             STREAMFLOW =           7213.52
     GW BOUNDARY FLOW =         183072.92       GW BOUNDARY FLOW =            722.33

   INFLOWS - OUTFLOWS =       -1096691.64     INFLOWS - OUTFLOWS =         -63577.31
             --------                                   --------

 TOTAL STORAGE CHANGE =       -1093495.22         STORAGE CHANGE =         -63571.04
       --------------                             --------------
         LAND SURFACE =          38772.54           LAND SURFACE =          -4318.45
            SOIL ZONE =         666033.51              SOIL ZONE =         -38295.69
     UNSATURATED ZONE =        -892921.17       UNSATURATED ZONE =         -12708.72
       SATURATED ZONE =        -905380.09         SATURATED ZONE =          -8248.17

 OVERALL BUDGET ERROR =          -3196.42           BUDGET ERROR =             -6.27


  PERCENT DISCREPANCY =             -0.02    PERCENT DISCREPANCY =             -0.01



1
 SUMMARY VOLUMETRIC BUDGET FOR GSFLOW 
 DATE: 06 16 1981              CUMULATIVE TIME STEP:     259
 MODFLOW STRESS PERIOD      2     CURRENT TIME STEP:     259     ITERATIONS:       9

 -----------------------------------------------------------------------------------

   CUMULATIVE VOLUMES               L**3   RATES FOR THIS TIME STEP           L**3/T
   ------------------                      ------------------------

                                     IN                                         IN
                                     --                                         --
        PRECIPITATION =        1.8318D+07          PRECIPITATION =                  
           STREAMFLOW =                               STREAMFLOW =                  
     GW BOUNDARY FLOW =                         GW BOUNDARY FLOW =                  


                                    OUT                                        OUT
                                    ---                                        ---
   EVAPOTRANSPIRATION =        1.3095D+07     EVAPOTRANSPIRATION =          47425.49
           STREAMFLOW =        6392461.82             STREAMFLOW =           6677.50
     GW BOUNDARY FLOW =         188127.94       GW BOUNDARY FLOW =            722.04

   INFLOWS - OUTFLOWS =       -1357083.26     INFLOWS - OUTFLOWS =         -54825.03
             --------                                   --------

 TOTAL STORAGE CHANGE =       -1353843.34         STORAGE CHANGE =         -54818.98
       --------------                             --------------
         LAND SURFACE =          24983.31           LAND SURFACE =          -2996.08
            SOIL ZONE =         569967.63              SOIL ZONE =         -30044.53
     UNSATURATED ZONE =        -983575.50       UNSATURATED ZONE =         -12988.07
       SATURATED ZONE =        -965218.77         SATURATED ZONE =          -8790.29

 OVERALL BUDGET ERROR =          -3239.93           BUDGET ERROR =             -6.05


  PERCENT DISCREPANCY =             -0.02    PERCENT DISCREPANCY =             -0.01



1
 SUMMARY VOLUMETRIC BUDGET FOR GSFLOW 
 DATE: 06 23 1981              CUMULATIVE TIME STEP:     266
 MODFLOW STRESS PERIOD      2     CURRENT TIME STEP:     266     ITERATIONS:      11

 -----------------------------------------------------------------------------------

   CUMULATIVE VOLUMES               L**3   RATES FOR THIS TIME STEP           L**3/T
   ------------------                      ------------------------

                                     IN                                         IN
                                     --                                         --
        PRECIPITATION =        1.8318D+07          PRECIPITATION =                  
           STREAMFLOW =                               STREAMFLOW =                  
     GW BOUNDARY FLOW =                         GW BOUNDARY FLOW =                  


                                    OUT                                        OUT
                                    ---                                        ---
   EVAPOTRANSPIRATION =        1.3436D+07     EVAPOTRANSPIRATION =          40219.09
           STREAMFLOW =        6436921.53             STREAMFLOW =           6110.83
     GW BOUNDARY FLOW =         193182.59       GW BOUNDARY FLOW =            722.40

   INFLOWS - OUTFLOWS =       -1748084.96     INFLOWS - OUTFLOWS =         -47052.32
             --------                                   --------

 TOTAL STORAGE CHANGE =       -1744800.49         STORAGE CHANGE =         -47045.92
       --------------                             --------------
         LAND SURFACE =           6713.78           LAND SURFACE =          -1553.37
            SOIL ZONE =         350909.60              SOIL ZONE =         -23626.10
     UNSATURATED ZONE =       -1072730.14       UNSATURATED ZONE =         -12542.44
       SATURATED ZONE =       -1029693.73         SATURATED ZONE =          -9324.01

 OVERALL BUDGET ERROR =          -3284.47           BUDGET ERROR =             -6.41


  PERCENT DISCREPANCY =             -0.02    PERCENT DISCREPANCY =             -0.01



1
 SUMMARY VOLUMETRIC BUDGET FOR GSFLOW 
 DATE: 06 30 1981              CUMULATIVE TIME STEP:     273
 MODFLOW STRESS PERIOD      2     CURRENT TIME STEP:     273     ITERATIONS:       9

 -----------------------------------------------------------------------------------

   CUMULATIVE VOLUMES               L**3   RATES FOR THIS TIME STEP           L**3/T
   ------------------                      ------------------------

                                     IN                                         IN
[...]
                                    ---                                        ---
   EVAPOTRANSPIRATION =        2.7920D+08     EVAPOTRANSPIRATION =          37100.78
           STREAMFLOW =        1.8820D+08             STREAMFLOW =           7233.59
     GW BOUNDARY FLOW =        4178857.54       GW BOUNDARY FLOW =            726.41

   INFLOWS - OUTFLOWS =       -6514469.86     INFLOWS - OUTFLOWS =         -45060.79
             --------                                   --------

 TOTAL STORAGE CHANGE =       -6499521.10         STORAGE CHANGE =         -45057.06
       --------------                             --------------
         LAND SURFACE =                             LAND SURFACE =                  
            SOIL ZONE =         270116.92              SOIL ZONE =         -22619.46
     UNSATURATED ZONE =        4886529.63       UNSATURATED ZONE =         -29558.04
       SATURATED ZONE =       -1.1656D+07         SATURATED ZONE =           7120.44

 OVERALL BUDGET ERROR =         -14948.77           BUDGET ERROR =             -3.73


  PERCENT DISCREPANCY =             -0.00    PERCENT DISCREPANCY =             -0.01



1
 SUMMARY VOLUMETRIC BUDGET FOR GSFLOW 
 DATE: 07 30 1996              CUMULATIVE TIME STEP:    5782
 MODFLOW STRESS PERIOD      2     CURRENT TIME STEP:    5782     ITERATIONS:      10

 -----------------------------------------------------------------------------------

   CUMULATIVE VOLUMES               L**3   RATES FOR THIS TIME STEP           L**3/T
   ------------------                      ------------------------

                                     IN                                         IN
                                     --                                         --
        PRECIPITATION =        4.6511D+08          PRECIPITATION =                  
           STREAMFLOW =                               STREAMFLOW =                  
     GW BOUNDARY FLOW =                         GW BOUNDARY FLOW =                  


                                    OUT                                        OUT
                                    ---                                        ---
   EVAPOTRANSPIRATION =        2.7943D+08     EVAPOTRANSPIRATION =          24901.70
           STREAMFLOW =        1.8825D+08             STREAMFLOW =           7068.97
     GW BOUNDARY FLOW =        4183940.39       GW BOUNDARY FLOW =            726.00

   INFLOWS - OUTFLOWS =       -6751271.66     INFLOWS - OUTFLOWS =         -32696.68
             --------                                   --------

 TOTAL STORAGE CHANGE =       -6736313.42         STORAGE CHANGE =         -32696.16
       --------------                             --------------
         LAND SURFACE =                             LAND SURFACE =                  
            SOIL ZONE =         188848.49              SOIL ZONE =         -10629.87
     UNSATURATED ZONE =        4681863.04       UNSATURATED ZONE =         -28806.26
       SATURATED ZONE =       -1.1607D+07         SATURATED ZONE =           6739.97

 OVERALL BUDGET ERROR =         -14958.24           BUDGET ERROR =             -0.51


  PERCENT DISCREPANCY =             -0.00    PERCENT DISCREPANCY =             -0.00



1
 SUMMARY VOLUMETRIC BUDGET FOR GSFLOW 
 DATE: 08 06 1996              CUMULATIVE TIME STEP:    5789
 MODFLOW STRESS PERIOD      2     CURRENT TIME STEP:    5789     ITERATIONS:      11

 -----------------------------------------------------------------------------------

   CUMULATIVE VOLUMES               L**3   RATES FOR THIS TIME STEP           L**3/T
   ------------------                      ------------------------

                                     IN                                         IN
                                     --                                         --
        PRECIPITATION =        4.6511D+08          PRECIPITATION =                  
           STREAMFLOW =                               STREAMFLOW =                  
     GW BOUNDARY FLOW =                         GW BOUNDARY FLOW =                  


                                    OUT                                        OUT
                                    ---                                        ---
   EVAPOTRANSPIRATION =        2.7956D+08     EVAPOTRANSPIRATION =          16189.74
           STREAMFLOW =        1.8830D+08             STREAMFLOW =           6862.75
     GW BOUNDARY FLOW =        4189021.63       GW BOUNDARY FLOW =            725.79

   INFLOWS - OUTFLOWS =       -6937035.76     INFLOWS - OUTFLOWS =         -23778.29
             --------                                   --------

 TOTAL STORAGE CHANGE =       -6922060.55         STORAGE CHANGE =         -23774.66
       --------------                             --------------
         LAND SURFACE =                             LAND SURFACE =                  
            SOIL ZONE =         156179.55              SOIL ZONE =          -2050.80
     UNSATURATED ZONE =        4486016.45       UNSATURATED ZONE =         -27407.37
       SATURATED ZONE =       -1.1564D+07         SATURATED ZONE =           5683.51

 OVERALL BUDGET ERROR =         -14975.21           BUDGET ERROR =             -3.63


  PERCENT DISCREPANCY =             -0.00    PERCENT DISCREPANCY =             -0.02



1
 SUMMARY VOLUMETRIC BUDGET FOR GSFLOW 
 DATE: 08 13 1996              CUMULATIVE TIME STEP:    5796
 MODFLOW STRESS PERIOD      2     CURRENT TIME STEP:    5796     ITERATIONS:      10

 -----------------------------------------------------------------------------------

   CUMULATIVE VOLUMES               L**3   RATES FOR THIS TIME STEP           L**3/T
   ------------------                      ------------------------

                                     IN                                         IN
                                     --                                         --
        PRECIPITATION =        4.6531D+08          PRECIPITATION =          54454.08
           STREAMFLOW =                               STREAMFLOW =                  
     GW BOUNDARY FLOW =                         GW BOUNDARY FLOW =                  


                                    OUT                                        OUT
                                    ---                                        ---
   EVAPOTRANSPIRATION =        2.7973D+08     EVAPOTRANSPIRATION =          29202.74
           STREAMFLOW =        1.8835D+08             STREAMFLOW =           8061.00
     GW BOUNDARY FLOW =        4194101.36       GW BOUNDARY FLOW =            725.67

   INFLOWS - OUTFLOWS =       -6952314.68     INFLOWS - OUTFLOWS =          16464.67
             --------                                   --------

 TOTAL STORAGE CHANGE =       -6937334.31         STORAGE CHANGE =          16465.93
       --------------                             --------------
         LAND SURFACE =          34505.06           LAND SURFACE =                  
            SOIL ZONE =         256914.23              SOIL ZONE =          37773.82
     UNSATURATED ZONE =        4297502.26       UNSATURATED ZONE =         -26449.62
       SATURATED ZONE =       -1.1526D+07         SATURATED ZONE =           5141.73

 OVERALL BUDGET ERROR =         -14980.36           BUDGET ERROR =             -1.26


  PERCENT DISCREPANCY =             -0.00    PERCENT DISCREPANCY =             -0.00



1
 SUMMARY VOLUMETRIC BUDGET FOR GSFLOW 
 DATE: 08 20 1996              CUMULATIVE TIME STEP:    5803
 MODFLOW STRESS PERIOD      2     CURRENT TIME STEP:    5803     ITERATIONS:      10

 -----------------------------------------------------------------------------------

   CUMULATIVE VOLUMES               L**3   RATES FOR THIS TIME STEP           L**3/T
   ------------------                      ------------------------

                                     IN                                         IN
                                     --                                         --
        PRECIPITATION =        4.6531D+08          PRECIPITATION =                  
           STREAMFLOW =                               STREAMFLOW =                  
     GW BOUNDARY FLOW =                         GW BOUNDARY FLOW =                  


                                    OUT                                        OUT
                                    ---                                        ---
   EVAPOTRANSPIRATION =        2.7992D+08     EVAPOTRANSPIRATION =          17155.22
           STREAMFLOW =        1.8839D+08             STREAMFLOW =           6648.98
     GW BOUNDARY FLOW =        4199178.91       GW BOUNDARY FLOW =            725.15

   INFLOWS - OUTFLOWS =       -7197026.81     INFLOWS - OUTFLOWS =         -24529.35
             --------                                   --------

 TOTAL STORAGE CHANGE =       -7182035.35         STORAGE CHANGE =         -24527.06
       --------------                             --------------
         LAND SURFACE =                             LAND SURFACE =                  
            SOIL ZONE =         195510.19              SOIL ZONE =          -3394.58
     UNSATURATED ZONE =        4119999.43       UNSATURATED ZONE =         -24567.07
       SATURATED ZONE =       -1.1498D+07         SATURATED ZONE =           3434.59

 OVERALL BUDGET ERROR =         -14991.46           BUDGET ERROR =             -2.29


  PERCENT DISCREPANCY =             -0.00    PERCENT DISCREPANCY =             -0.01



1
 SUMMARY VOLUMETRIC BUDGET FOR GSFLOW 
 DATE: 08 27 1996              CUMULATIVE TIME STEP:    5810
 MODFLOW STRESS PERIOD      2     CURRENT TIME STEP:    5810     ITERATIONS:      10

 -----------------------------------------------------------------------------------

   CUMULATIVE VOLUMES               L**3   RATES FOR THIS TIME STEP           L**3/T
   ------------------                      ------------------------

                                     IN                                         IN
                                     --                                         --
        PRECIPITATION =        4.6531D+08          PRECIPITATION =                  
           STREAMFLOW =                               STREAMFLOW =                  
     GW BOUNDARY FLOW =                         GW BOUNDARY FLOW =                  


                                    OUT                                        OUT
                                    ---                                        ---
   EVAPOTRANSPIRATION =        2.8005D+08     EVAPOTRANSPIRATION =          15684.48
           STREAMFLOW =        1.8844D+08             STREAMFLOW =           6485.44
     GW BOUNDARY FLOW =        4204253.02       GW BOUNDARY FLOW =            724.68

   INFLOWS - OUTFLOWS =       -7384106.00     INFLOWS - OUTFLOWS =         -22894.60
             --------                                   --------

 TOTAL STORAGE CHANGE =       -7369099.47         STORAGE CHANGE =         -22891.35
       --------------                             --------------
         LAND SURFACE =                             LAND SURFACE =                  
            SOIL ZONE =         155270.37              SOIL ZONE =          -2031.88
     UNSATURATED ZONE =        3955331.31       UNSATURATED ZONE =         -22952.11
       SATURATED ZONE =       -1.1480D+07         SATURATED ZONE =           2092.65

 OVERALL BUDGET ERROR =         -15006.54           BUDGET ERROR =             -3.26


  PERCENT DISCREPANCY =             -0.00    PERCENT DISCREPANCY =             -0.01



1
 SUMMARY VOLUMETRIC BUDGET FOR GSFLOW 
 DATE: 09 03 1996              CUMULATIVE TIME STEP:    5817
 MODFLOW STRESS PERIOD      2     CURRENT TIME STEP:    5817     ITERATIONS:      10

 -----------------------------------------------------------------------------------

   CUMULATIVE VOLUMES               L**3   RATES FOR THIS TIME STEP           L**3/T
   ------------------                      ------------------------

                                     IN                                         IN
                                     --                                         --
        PRECIPITATION =        4.6531D+08          PRECIPITATION =                  
           STREAMFLOW =                               STREAMFLOW =                  
     GW BOUNDARY FLOW =                         GW BOUNDARY FLOW =                  


                                    OUT                                        OUT
                                    ---                                        ---
   EVAPOTRANSPIRATION =        2.8016D+08     EVAPOTRANSPIRATION =          12724.06
           STREAMFLOW =        1.8848D+08             STREAMFLOW =           6375.81
     GW BOUNDARY FLOW =        4209323.97       GW BOUNDARY FLOW =            724.25

   INFLOWS - OUTFLOWS =       -7544216.95     INFLOWS - OUTFLOWS =         -19824.12
             --------                                   --------

 TOTAL STORAGE CHANGE =       -7529188.58         STORAGE CHANGE =         -19820.85
       --------------                             --------------
         LAND SURFACE =                             LAND SURFACE =                  
            SOIL ZONE =         140180.42              SOIL ZONE =            786.52
     UNSATURATED ZONE =        3795986.96       UNSATURATED ZONE =         -22343.79
       SATURATED ZONE =       -1.1465D+07         SATURATED ZONE =           1736.41

 OVERALL BUDGET ERROR =         -15028.36           BUDGET ERROR =             -3.27


  PERCENT DISCREPANCY =             -0.00    PERCENT DISCREPANCY =             -0.02



1
 SUMMARY VOLUMETRIC BUDGET FOR GSFLOW 
 DATE: 09 10 1996              CUMULATIVE TIME STEP:    5824
 MODFLOW STRESS PERIOD      2     CURRENT TIME STEP:    5824     ITERATIONS:      10

 -----------------------------------------------------------------------------------

   CUMULATIVE VOLUMES               L**3   RATES FOR THIS TIME STEP           L**3/T
   ------------------                      ------------------------

                                     IN                                         IN
                                     --                                         --
        PRECIPITATION =        4.6531D+08          PRECIPITATION =                  
           STREAMFLOW =                               STREAMFLOW =                  
     GW BOUNDARY FLOW =                         GW BOUNDARY FLOW =                  


                                    OUT                                        OUT
                                    ---                                        ---
   EVAPOTRANSPIRATION =        2.8025D+08     EVAPOTRANSPIRATION =          13579.69
           STREAMFLOW =        1.8853D+08             STREAMFLOW =           6275.03
     GW BOUNDARY FLOW =        4214392.04       GW BOUNDARY FLOW =            723.83

   INFLOWS - OUTFLOWS =       -7681630.40     INFLOWS - OUTFLOWS =         -20578.55
             --------                                   --------

 TOTAL STORAGE CHANGE =       -7666588.38         STORAGE CHANGE =         -20575.36
       --------------                             --------------
         LAND SURFACE =                             LAND SURFACE =                  
            SOIL ZONE =         146071.05              SOIL ZONE =           -208.49
     UNSATURATED ZONE =        3643690.70       UNSATURATED ZONE =         -21567.26
       SATURATED ZONE =       -1.1456D+07         SATURATED ZONE =           1200.40

 OVERALL BUDGET ERROR =         -15042.03           BUDGET ERROR =             -3.19


  PERCENT DISCREPANCY =             -0.00    PERCENT DISCREPANCY =             -0.02



1
 SUMMARY VOLUMETRIC BUDGET FOR GSFLOW 
 DATE: 09 17 1996              CUMULATIVE TIME STEP:    5831
 MODFLOW STRESS PERIOD      2     CURRENT TIME STEP:    5831     ITERATIONS:      14

 -----------------------------------------------------------------------------------

   CUMULATIVE VOLUMES               L**3   RATES FOR THIS TIME STEP           L**3/T
   ------------------                      ------------------------

                                     IN                                         IN
                                     --                                         --
        PRECIPITATION =        4.6637D+08          PRECIPITATION =                  
           STREAMFLOW =                               STREAMFLOW =                  
     GW BOUNDARY FLOW =                         GW BOUNDARY FLOW =                  


                                    OUT                                        OUT
                                    ---                                        ---
   EVAPOTRANSPIRATION =        2.8042D+08     EVAPOTRANSPIRATION =          52774.70
           STREAMFLOW =        1.8860D+08             STREAMFLOW =          10495.43
     GW BOUNDARY FLOW =        4219459.86       GW BOUNDARY FLOW =            724.44

   INFLOWS - OUTFLOWS =       -6868981.97     INFLOWS - OUTFLOWS =         -63994.57
             --------                                   --------

 TOTAL STORAGE CHANGE =       -6853894.32         STORAGE CHANGE =         -63988.10
       --------------                             --------------
         LAND SURFACE =            821.85           LAND SURFACE =         -33683.21
            SOIL ZONE =        1097696.84              SOIL ZONE =         -10196.22
     UNSATURATED ZONE =        3495986.37       UNSATURATED ZONE =         -20439.06
       SATURATED ZONE =       -1.1448D+07         SATURATED ZONE =            330.39

 OVERALL BUDGET ERROR =         -15087.65           BUDGET ERROR =             -6.48


  PERCENT DISCREPANCY =             -0.00    PERCENT DISCREPANCY =             -0.01



1
 SUMMARY VOLUMETRIC BUDGET FOR GSFLOW 
 DATE: 09 24 1996              CUMULATIVE TIME STEP:    5838
 MODFLOW STRESS PERIOD      2     CURRENT TIME STEP:    5838     ITERATIONS:      11

 -----------------------------------------------------------------------------------

   CUMULATIVE VOLUMES               L**3   RATES FOR THIS TIME STEP           L**3/T
   ------------------                      ------------------------

                                     IN                                         IN
                                     --                                         --
        PRECIPITATION =        4.6637D+08          PRECIPITATION =                  
           STREAMFLOW =                               STREAMFLOW =                  
     GW BOUNDARY FLOW =                         GW BOUNDARY FLOW =                  


                                    OUT                                        OUT
                                    ---                                        ---
   EVAPOTRANSPIRATION =        2.8091D+08     EVAPOTRANSPIRATION =          56359.95
           STREAMFLOW =        1.8865D+08             STREAMFLOW =           6970.62
     GW BOUNDARY FLOW =        4224526.32       GW BOUNDARY FLOW =            723.40

   INFLOWS - OUTFLOWS =       -7421583.32     INFLOWS - OUTFLOWS =         -64053.97
             --------                                   --------

 TOTAL STORAGE CHANGE =       -7406455.58         STORAGE CHANGE =         -64048.79
       --------------                             --------------
         LAND SURFACE =                             LAND SURFACE =                  
            SOIL ZONE =         686079.01              SOIL ZONE =         -44109.24
     UNSATURATED ZONE =        3356370.58       UNSATURATED ZONE =         -19521.00
       SATURATED ZONE =       -1.1449D+07         SATURATED ZONE =           -418.55

 OVERALL BUDGET ERROR =         -15127.74           BUDGET ERROR =             -5.18


  PERCENT DISCREPANCY =             -0.00    PERCENT DISCREPANCY =             -0.01



