1
 SUMMARY VOLUMETRIC BUDGET FOR GSFLOW 
 DATE: 09 15 1983              CUMULATIVE TIME STEP:    1080
 MODFLOW STRESS PERIOD      1     CURRENT TIME STEP:    1080     ITERATIONS:      16

 -----------------------------------------------------------------------------------

   CUMULATIVE VOLUMES               L**3   RATES FOR THIS TIME STEP           L**3/T
   ------------------                      ------------------------

                                     IN                                         IN
                                     --                                         --
        PRECIPITATION =                            PRECIPITATION =                  
           STREAMFLOW =                               STREAMFLOW =                  
     GW BOUNDARY FLOW =                         GW BOUNDARY FLOW =                  


                                    OUT                                        OUT
                                    ---                                        ---
   EVAPOTRANSPIRATION =        1.9499D+07     EVAPOTRANSPIRATION =        2704408.51
           STREAMFLOW =        9774285.25             STREAMFLOW =        1389678.38
     GW BOUNDARY FLOW =                         GW BOUNDARY FLOW =                  

   INFLOWS - OUTFLOWS =       -2.9273D+07     INFLOWS - OUTFLOWS =       -4094086.89
             --------                                   --------

 TOTAL STORAGE CHANGE =       -2.9261D+07         STORAGE CHANGE =       -4097622.38
       --------------                             --------------
         LAND SURFACE =       -1095267.03           LAND SURFACE =        -127797.64
            SOIL ZONE =       -5917069.77              SOIL ZONE =        -754534.47
     UNSATURATED ZONE =        -970875.47       UNSATURATED ZONE =        -140373.39
       SATURATED ZONE =       -1643725.94         SATURATED ZONE =        -237978.88
                LAKES =       -1.9634D+07                  LAKES =       -2836938.00

 OVERALL BUDGET ERROR =         -12341.66           BUDGET ERROR =           3535.49


  PERCENT DISCREPANCY =             -0.04    PERCENT DISCREPANCY =              0.09



