1
 SUMMARY VOLUMETRIC BUDGET FOR GSFLOW 
 DATE: 12 01 1983              CUMULATIVE TIME STEP:    1157
 MODFLOW STRESS PERIOD      1     CURRENT TIME STEP:    1157     ITERATIONS:      10

 -----------------------------------------------------------------------------------

   CUMULATIVE VOLUMES               L**3   RATES FOR THIS TIME STEP           L**3/T
   ------------------                      ------------------------

                                     IN                                         IN
                                     --                                         --
        PRECIPITATION =        2.5846D+07          PRECIPITATION =                  
           STREAMFLOW =                               STREAMFLOW =                  
     GW BOUNDARY FLOW =                         GW BOUNDARY FLOW =                  


                                    OUT                                        OUT
                                    ---                                        ---
   EVAPOTRANSPIRATION =        3707055.17     EVAPOTRANSPIRATION =        1037961.89
           STREAMFLOW =        3.2981D+07             STREAMFLOW =        5040038.00
     GW BOUNDARY FLOW =                         GW BOUNDARY FLOW =                  

   INFLOWS - OUTFLOWS =       -1.0842D+07     INFLOWS - OUTFLOWS =       -6077999.89
             --------                                   --------

 TOTAL STORAGE CHANGE =       -1.1088D+07         STORAGE CHANGE =       -6004525.07
       --------------                             --------------
         LAND SURFACE =        1.7426D+07           LAND SURFACE =        -529576.66
            SOIL ZONE =        -786274.54              SOIL ZONE =         -95319.23
     UNSATURATED ZONE =          31892.24       UNSATURATED ZONE =         -15890.70
       SATURATED ZONE =       -1034014.47         SATURATED ZONE =        -141024.97
                LAKES =       -2.6726D+07                  LAKES =       -5222713.50

 OVERALL BUDGET ERROR =         246387.59           BUDGET ERROR =         -73474.82


  PERCENT DISCREPANCY =              0.67    PERCENT DISCREPANCY =             -1.22



