1
 SUMMARY VOLUMETRIC BUDGET FOR GSFLOW 
 DATE: 10 07 1980              CUMULATIVE TIME STEP:       7
 MODFLOW STRESS PERIOD      1     CURRENT TIME STEP:       7     ITERATIONS:      12

 -----------------------------------------------------------------------------------

   CUMULATIVE VOLUMES               L**3   RATES FOR THIS TIME STEP           L**3/T
   ------------------                      ------------------------

                                     IN                                         IN
                                     --                                         --
        PRECIPITATION =                            PRECIPITATION =                  
           STREAMFLOW =                               STREAMFLOW =                  
     GW BOUNDARY FLOW =                         GW BOUNDARY FLOW =                  


                                    OUT                                        OUT
                                    ---                                        ---
   EVAPOTRANSPIRATION =        1.5448D+07     EVAPOTRANSPIRATION =        1422148.20
           STREAMFLOW =        1672059.45             STREAMFLOW =         183556.67
     GW BOUNDARY FLOW =                         GW BOUNDARY FLOW =                  

   INFLOWS - OUTFLOWS =       -1.7120D+07     INFLOWS - OUTFLOWS =       -1605704.87
             --------                                   --------

 TOTAL STORAGE CHANGE =       -1.7098D+07         STORAGE CHANGE =       -1603012.53
       --------------                             --------------
         LAND SURFACE =                             LAND SURFACE =                  
            SOIL ZONE =       -5383474.87              SOIL ZONE =        -221232.04
     UNSATURATED ZONE =       -1429527.53       UNSATURATED ZONE =         -62733.61
       SATURATED ZONE =       -1314802.34         SATURATED ZONE =        -268583.00
                LAKES =       -8970216.00                  LAKES =       -1050463.88

 OVERALL BUDGET ERROR =         -21906.33           BUDGET ERROR =          -2692.35


  PERCENT DISCREPANCY =             -0.13    PERCENT DISCREPANCY =             -0.17



1
 SUMMARY VOLUMETRIC BUDGET FOR GSFLOW 
 DATE: 10 14 1980              CUMULATIVE TIME STEP:      14
 MODFLOW STRESS PERIOD      1     CURRENT TIME STEP:      14     ITERATIONS:       3

 -----------------------------------------------------------------------------------

   CUMULATIVE VOLUMES               L**3   RATES FOR THIS TIME STEP           L**3/T
   ------------------                      ------------------------

                                     IN                                         IN
                                     --                                         --
        PRECIPITATION =        1.3442D+07          PRECIPITATION =        6721104.51
           STREAMFLOW =                               STREAMFLOW =                  
     GW BOUNDARY FLOW =                         GW BOUNDARY FLOW =                  


                                    OUT                                        OUT
                                    ---                                        ---
   EVAPOTRANSPIRATION =        2.2948D+07     EVAPOTRANSPIRATION =         498985.73
           STREAMFLOW =        2279257.93             STREAMFLOW =          34825.47
     GW BOUNDARY FLOW =                         GW BOUNDARY FLOW =                  

   INFLOWS - OUTFLOWS =       -1.1786D+07     INFLOWS - OUTFLOWS =        6187293.30
             --------                                   --------

 TOTAL STORAGE CHANGE =       -1.1895D+07         STORAGE CHANGE =        6113760.17
       --------------                             --------------
         LAND SURFACE =        2552191.86           LAND SURFACE =        1584944.65
            SOIL ZONE =         412694.00              SOIL ZONE =        2951379.96
     UNSATURATED ZONE =       -1864707.45       UNSATURATED ZONE =         -57186.45
       SATURATED ZONE =       -2747808.55         SATURATED ZONE =        -121505.36
                LAKES =       -1.0247D+07                  LAKES =        1756127.38

 OVERALL BUDGET ERROR =         109481.79           BUDGET ERROR =          73533.13


  PERCENT DISCREPANCY =              0.43    PERCENT DISCREPANCY =              1.10



1
 SUMMARY VOLUMETRIC BUDGET FOR GSFLOW 
 DATE: 10 21 1980              CUMULATIVE TIME STEP:      21
 MODFLOW STRESS PERIOD      1     CURRENT TIME STEP:      21     ITERATIONS:       5

 -----------------------------------------------------------------------------------

   CUMULATIVE VOLUMES               L**3   RATES FOR THIS TIME STEP           L**3/T
   ------------------                      ------------------------

                                     IN                                         IN
                                     --                                         --
        PRECIPITATION =        1.6803D+07          PRECIPITATION =                  
           STREAMFLOW =                               STREAMFLOW =                  
     GW BOUNDARY FLOW =                         GW BOUNDARY FLOW =                  


                                    OUT                                        OUT
                                    ---                                        ---
   EVAPOTRANSPIRATION =        2.9692D+07     EVAPOTRANSPIRATION =        1424722.06
           STREAMFLOW =        3039640.24             STREAMFLOW =         364363.34
     GW BOUNDARY FLOW =                         GW BOUNDARY FLOW =                  

   INFLOWS - OUTFLOWS =       -1.5929D+07     INFLOWS - OUTFLOWS =       -1789085.41
             --------                                   --------

 TOTAL STORAGE CHANGE =       -1.6060D+07         STORAGE CHANGE =       -1791401.77
       --------------                             --------------
         LAND SURFACE =         587435.56           LAND SURFACE =        -187987.90
            SOIL ZONE =         288037.16              SOIL ZONE =        -618355.24
     UNSATURATED ZONE =       -2309264.61       UNSATURATED ZONE =         -63181.19
       SATURATED ZONE =       -3777311.94         SATURATED ZONE =        -149974.75
                LAKES =       -1.0849D+07                  LAKES =        -771902.69

 OVERALL BUDGET ERROR =         131080.29           BUDGET ERROR =           2316.36


  PERCENT DISCREPANCY =              0.40    PERCENT DISCREPANCY =              0.13



1
 SUMMARY VOLUMETRIC BUDGET FOR GSFLOW 
 DATE: 10 28 1980              CUMULATIVE TIME STEP:      28
 MODFLOW STRESS PERIOD      1     CURRENT TIME STEP:      28     ITERATIONS:       4

 -----------------------------------------------------------------------------------

   CUMULATIVE VOLUMES               L**3   RATES FOR THIS TIME STEP           L**3/T
   ------------------                      ------------------------

                                     IN                                         IN
                                     --                                         --
        PRECIPITATION =        4.0327D+07          PRECIPITATION =                  
           STREAMFLOW =                               STREAMFLOW =                  
     GW BOUNDARY FLOW =                         GW BOUNDARY FLOW =                  


                                    OUT                                        OUT
                                    ---                                        ---
   EVAPOTRANSPIRATION =        3.6514D+07     EVAPOTRANSPIRATION =         402573.76
           STREAMFLOW =        5483093.68             STREAMFLOW =         342843.84
     GW BOUNDARY FLOW =                         GW BOUNDARY FLOW =                  

   INFLOWS - OUTFLOWS =       -1670369.21     INFLOWS - OUTFLOWS =        -745417.61
             --------                                   --------

 TOTAL STORAGE CHANGE =       -2181893.93         STORAGE CHANGE =        -664129.69
       --------------                             --------------
         LAND SURFACE =        4876305.94           LAND SURFACE =        -161718.52
            SOIL ZONE =        7703352.15              SOIL ZONE =        -222073.18
     UNSATURATED ZONE =       -2599560.52       UNSATURATED ZONE =         -29381.12
       SATURATED ZONE =       -4490311.95         SATURATED ZONE =        -123588.58
                LAKES =       -7671679.55                  LAKES =        -127368.30

 OVERALL BUDGET ERROR =         511524.72           BUDGET ERROR =         -81287.92

  ***CAUTION, FLUX RATES OFF > 10%

  PERCENT DISCREPANCY =              1.21    PERCENT DISCREPANCY =            -11.53



1
 SUMMARY VOLUMETRIC BUDGET FOR GSFLOW 
 DATE: 11 04 1980              CUMULATIVE TIME STEP:      35
 MODFLOW STRESS PERIOD      1     CURRENT TIME STEP:      35     ITERATIONS:      11

 -----------------------------------------------------------------------------------

   CUMULATIVE VOLUMES               L**3   RATES FOR THIS TIME STEP           L**3/T
   ------------------                      ------------------------

                                     IN                                         IN
                                     --                                         --
        PRECIPITATION =        5.0408D+07          PRECIPITATION =                  
           STREAMFLOW =                               STREAMFLOW =                  
     GW BOUNDARY FLOW =                         GW BOUNDARY FLOW =                  


                                    OUT                                        OUT
                                    ---                                        ---
   EVAPOTRANSPIRATION =        5.1141D+07     EVAPOTRANSPIRATION =        2771841.90
           STREAMFLOW =        7931988.93             STREAMFLOW =         350029.88
     GW BOUNDARY FLOW =                         GW BOUNDARY FLOW =                  

   INFLOWS - OUTFLOWS =       -8664941.40     INFLOWS - OUTFLOWS =       -3121871.77
             --------                                   --------

 TOTAL STORAGE CHANGE =       -9628635.13         STORAGE CHANGE =       -3136246.29
       --------------                             --------------
         LAND SURFACE =         255110.40           LAND SURFACE =         -53081.36
            SOIL ZONE =        4499732.32              SOIL ZONE =       -1766056.02
     UNSATURATED ZONE =       -2532687.28       UNSATURATED ZONE =         -44881.80
       SATURATED ZONE =       -5051810.59         SATURATED ZONE =        -248234.36
                LAKES =       -6798979.98                  LAKES =       -1023992.75

 OVERALL BUDGET ERROR =         963693.73           BUDGET ERROR =          14374.52


  PERCENT DISCREPANCY =              1.62    PERCENT DISCREPANCY =              0.46



1
 SUMMARY VOLUMETRIC BUDGET FOR GSFLOW 
 DATE: 11 11 1980              CUMULATIVE TIME STEP:      42
 MODFLOW STRESS PERIOD      1     CURRENT TIME STEP:      42     ITERATIONS:       5

 -----------------------------------------------------------------------------------

   CUMULATIVE VOLUMES               L**3   RATES FOR THIS TIME STEP           L**3/T
   ------------------                      ------------------------

                                     IN                                         IN
                                     --                                         --
        PRECIPITATION =        7.9485D+07          PRECIPITATION =        3230734.65
           STREAMFLOW =                               STREAMFLOW =                  
     GW BOUNDARY FLOW =                         GW BOUNDARY FLOW =                  


                                    OUT                                        OUT
                                    ---                                        ---
   EVAPOTRANSPIRATION =        6.8596D+07     EVAPOTRANSPIRATION =        1673736.60
           STREAMFLOW =        9809618.45             STREAMFLOW =         250092.36
     GW BOUNDARY FLOW =                         GW BOUNDARY FLOW =                  

   INFLOWS - OUTFLOWS =        1079749.38     INFLOWS - OUTFLOWS =        1306905.69
             --------                                   --------

 TOTAL STORAGE CHANGE =        -266717.98         STORAGE CHANGE =        1181407.43
       --------------                             --------------
         LAND SURFACE =        3624904.48           LAND SURFACE =         -64050.52
            SOIL ZONE =        9190476.43              SOIL ZONE =         665647.90
     UNSATURATED ZONE =       -2568662.95       UNSATURATED ZONE =          39109.37
       SATURATED ZONE =       -5923106.14         SATURATED ZONE =         -40947.75
                LAKES =       -4590329.80                  LAKES =         581648.44

 OVERALL BUDGET ERROR =        1346467.36           BUDGET ERROR =         125498.26

  ***WARNING, FLUX RATES OFF > 3%

  PERCENT DISCREPANCY =              1.70    PERCENT DISCREPANCY =              3.96



1
 SUMMARY VOLUMETRIC BUDGET FOR GSFLOW 
 DATE: 11 18 1980              CUMULATIVE TIME STEP:      49
 MODFLOW STRESS PERIOD      1     CURRENT TIME STEP:      49     ITERATIONS:       3

 -----------------------------------------------------------------------------------

   CUMULATIVE VOLUMES               L**3   RATES FOR THIS TIME STEP           L**3/T
   ------------------                      ------------------------

                                     IN                                         IN
                                     --                                         --
        PRECIPITATION =        8.5946D+07          PRECIPITATION =                  
           STREAMFLOW =                               STREAMFLOW =                  
     GW BOUNDARY FLOW =                         GW BOUNDARY FLOW =                  


                                    OUT                                        OUT
                                    ---                                        ---
   EVAPOTRANSPIRATION =        7.4680D+07     EVAPOTRANSPIRATION =        1458697.02
           STREAMFLOW =        1.1638D+07             STREAMFLOW =         312770.75
     GW BOUNDARY FLOW =                         GW BOUNDARY FLOW =                  

   INFLOWS - OUTFLOWS =        -371326.68     INFLOWS - OUTFLOWS =       -1771467.77
             --------                                   --------

 TOTAL STORAGE CHANGE =       -1626313.97         STORAGE CHANGE =       -1763647.46
       --------------                             --------------
         LAND SURFACE =        4198492.95           LAND SURFACE =        -457438.41
            SOIL ZONE =        8692279.97              SOIL ZONE =        -589269.11
     UNSATURATED ZONE =       -2504359.45       UNSATURATED ZONE =          14650.53
       SATURATED ZONE =       -7162945.83         SATURATED ZONE =        -173041.59
                LAKES =       -4849781.61                  LAKES =        -558548.88

 OVERALL BUDGET ERROR =        1254987.28           BUDGET ERROR =          -7820.31


  PERCENT DISCREPANCY =              1.44    PERCENT DISCREPANCY =             -0.44



1
 SUMMARY VOLUMETRIC BUDGET FOR GSFLOW 
 DATE: 11 25 1980              CUMULATIVE TIME STEP:      56
 MODFLOW STRESS PERIOD      1     CURRENT TIME STEP:      56     ITERATIONS:       3

 -----------------------------------------------------------------------------------

   CUMULATIVE VOLUMES               L**3   RATES FOR THIS TIME STEP           L**3/T
   ------------------                      ------------------------

                                     IN                                         IN
                                     --                                         --
        PRECIPITATION =        8.9177D+07          PRECIPITATION =                  
           STREAMFLOW =                               STREAMFLOW =                  
     GW BOUNDARY FLOW =                         GW BOUNDARY FLOW =                  


                                    OUT                                        OUT
                                    ---                                        ---
   EVAPOTRANSPIRATION =        8.1326D+07     EVAPOTRANSPIRATION =         263920.67
           STREAMFLOW =        1.4055D+07             STREAMFLOW =         437097.75
     GW BOUNDARY FLOW =                         GW BOUNDARY FLOW =                  

   INFLOWS - OUTFLOWS =       -6203617.97     INFLOWS - OUTFLOWS =        -701018.42
             --------                                   --------

 TOTAL STORAGE CHANGE =       -7594438.12         STORAGE CHANGE =        -724857.26
       --------------                             --------------
         LAND SURFACE =        3974805.71           LAND SURFACE =         -28433.07
            SOIL ZONE =        6861141.52              SOIL ZONE =        -177595.79
     UNSATURATED ZONE =       -2503267.03       UNSATURATED ZONE =         -13517.72
       SATURATED ZONE =       -8391638.95         SATURATED ZONE =        -183407.38
                LAKES =       -7535479.36                  LAKES =        -321903.31

 OVERALL BUDGET ERROR =        1390820.15           BUDGET ERROR =          23838.85

  ***WARNING, FLUX RATES OFF > 3%

  PERCENT DISCREPANCY =              1.45    PERCENT DISCREPANCY =              3.34



1
 SUMMARY VOLUMETRIC BUDGET FOR GSFLOW 
 DATE: 12 02 1980              CUMULATIVE TIME STEP:      63
 MODFLOW STRESS PERIOD      1     CURRENT TIME STEP:      63     ITERATIONS:       4

 -----------------------------------------------------------------------------------

   CUMULATIVE VOLUMES               L**3   RATES FOR THIS TIME STEP           L**3/T
   ------------------                      ------------------------

                                     IN                                         IN
                                     --                                         --
        PRECIPITATION =        1.0846D+08          PRECIPITATION =        3198161.89
           STREAMFLOW =                               STREAMFLOW =                  
     GW BOUNDARY FLOW =                         GW BOUNDARY FLOW =                  


                                    OUT                                        OUT
                                    ---                                        ---
   EVAPOTRANSPIRATION =        8.8725D+07     EVAPOTRANSPIRATION =        1265022.34
           STREAMFLOW =        1.7318D+07             STREAMFLOW =         437213.25
     GW BOUNDARY FLOW =                         GW BOUNDARY FLOW =                  

   INFLOWS - OUTFLOWS =        2421199.45     INFLOWS - OUTFLOWS =        1495926.31
             --------                                   --------

 TOTAL STORAGE CHANGE =         527633.28         STORAGE CHANGE =        1343550.32
       --------------                             --------------
         LAND SURFACE =        7015307.18           LAND SURFACE =        -910146.01
            SOIL ZONE =        1.0581D+07              SOIL ZONE =        1688411.14
     UNSATURATED ZONE =       -2365966.67       UNSATURATED ZONE =          46981.19
       SATURATED ZONE =       -9129886.84         SATURATED ZONE =         -52456.88
                LAKES =       -5572746.80                  LAKES =         570760.88

 OVERALL BUDGET ERROR =        1893566.18           BUDGET ERROR =         152375.99

  ***WARNING, FLUX RATES OFF > 3%

  PERCENT DISCREPANCY =              1.76    PERCENT DISCREPANCY =              4.88



1
 SUMMARY VOLUMETRIC BUDGET FOR GSFLOW 
 DATE: 12 09 1980              CUMULATIVE TIME STEP:      70
 MODFLOW STRESS PERIOD      1     CURRENT TIME STEP:      70     ITERATIONS:      32

 -----------------------------------------------------------------------------------

   CUMULATIVE VOLUMES               L**3   RATES FOR THIS TIME STEP           L**3/T
   ------------------                      ------------------------

                                     IN                                         IN
                                     --                                         --
        PRECIPITATION =        1.7882D+08          PRECIPITATION =                  
           STREAMFLOW =                               STREAMFLOW =                  
     GW BOUNDARY FLOW =                         GW BOUNDARY FLOW =                  


                                    OUT                                        OUT
                                    ---                                        ---
   EVAPOTRANSPIRATION =        9.0989D+07     EVAPOTRANSPIRATION =         375216.94
           STREAMFLOW =        2.0282D+07             STREAMFLOW =         420980.50
     GW BOUNDARY FLOW =                         GW BOUNDARY FLOW =                  

   INFLOWS - OUTFLOWS =        6.7553D+07     INFLOWS - OUTFLOWS =        -796197.44
             --------                                   --------

 TOTAL STORAGE CHANGE =        6.5047D+07         STORAGE CHANGE =        -820595.74
       --------------                             --------------
         LAND SURFACE =        5.1333D+07           LAND SURFACE =        -232730.97
            SOIL ZONE =        1.3512D+07              SOIL ZONE =        -140271.42
     UNSATURATED ZONE =       -1975750.82       UNSATURATED ZONE =          22290.92
       SATURATED ZONE =       -1.0096D+07         SATURATED ZONE =        -192092.83
                LAKES =        1.2273D+07                  LAKES =        -277791.44

 OVERALL BUDGET ERROR =        2505379.06           BUDGET ERROR =          24398.30

  ***WARNING, FLUX RATES OFF > 3%

  PERCENT DISCREPANCY =              1.41    PERCENT DISCREPANCY =              3.02



1
 SUMMARY VOLUMETRIC BUDGET FOR GSFLOW 
 DATE: 12 16 1980              CUMULATIVE TIME STEP:      77
 MODFLOW STRESS PERIOD      1     CURRENT TIME STEP:      77     ITERATIONS:       4

 -----------------------------------------------------------------------------------

   CUMULATIVE VOLUMES               L**3   RATES FOR THIS TIME STEP           L**3/T
   ------------------                      ------------------------

                                     IN                                         IN
                                     --                                         --
        PRECIPITATION =        1.7882D+08          PRECIPITATION =                  
           STREAMFLOW =                               STREAMFLOW =                  
     GW BOUNDARY FLOW =                         GW BOUNDARY FLOW =                  


                                    OUT                                        OUT
                                    ---                                        ---
   EVAPOTRANSPIRATION =        9.7393D+07     EVAPOTRANSPIRATION =        1439377.75
           STREAMFLOW =        2.3263D+07             STREAMFLOW =         430692.75
     GW BOUNDARY FLOW =                         GW BOUNDARY FLOW =                  

   INFLOWS - OUTFLOWS =        5.8167D+07     INFLOWS - OUTFLOWS =       -1870070.50
             --------                                   --------

 TOTAL STORAGE CHANGE =        5.5479D+07         STORAGE CHANGE =       -1898720.73
       --------------                             --------------
         LAND SURFACE =        4.7098D+07           LAND SURFACE =       -1180296.64
            SOIL ZONE =        1.3175D+07              SOIL ZONE =         208161.69
     UNSATURATED ZONE =       -1917705.50       UNSATURATED ZONE =          -9826.91
       SATURATED ZONE =       -1.1445D+07         SATURATED ZONE =        -165146.81
                LAKES =        8569341.66                  LAKES =        -751612.06

 OVERALL BUDGET ERROR =        2688034.87           BUDGET ERROR =          28650.23


  PERCENT DISCREPANCY =              1.51    PERCENT DISCREPANCY =              1.52



1
 SUMMARY VOLUMETRIC BUDGET FOR GSFLOW 
 DATE: 12 23 1980              CUMULATIVE TIME STEP:      84
 MODFLOW STRESS PERIOD      1     CURRENT TIME STEP:      84     ITERATIONS:       3

 -----------------------------------------------------------------------------------

   CUMULATIVE VOLUMES               L**3   RATES FOR THIS TIME STEP           L**3/T
   ------------------                      ------------------------

                                     IN                                         IN
                                     --                                         --
        PRECIPITATION =        1.8522D+08          PRECIPITATION =        3198161.89
           STREAMFLOW =                               STREAMFLOW =                  
     GW BOUNDARY FLOW =                         GW BOUNDARY FLOW =                  


                                    OUT                                        OUT
                                    ---                                        ---
   EVAPOTRANSPIRATION =        1.0552D+08     EVAPOTRANSPIRATION =        1087546.92
           STREAMFLOW =        2.6315D+07             STREAMFLOW =         443558.44
     GW BOUNDARY FLOW =                         GW BOUNDARY FLOW =                  

   INFLOWS - OUTFLOWS =        5.3384D+07     INFLOWS - OUTFLOWS =        1667056.53
             --------                                   --------

 TOTAL STORAGE CHANGE =        5.0409D+07         STORAGE CHANGE =        1559822.52
       --------------                             --------------
         LAND SURFACE =        4.2065D+07           LAND SURFACE =        -263687.29
            SOIL ZONE =        1.6149D+07              SOIL ZONE =        1301914.72
     UNSATURATED ZONE =       -1809659.07       UNSATURATED ZONE =          76814.20
       SATURATED ZONE =       -1.2357D+07         SATURATED ZONE =         -79892.86
                LAKES =        6360842.41                  LAKES =         524673.75

 OVERALL BUDGET ERROR =        2975425.53           BUDGET ERROR =         107234.01

  ***WARNING, FLUX RATES OFF > 3%

  PERCENT DISCREPANCY =              1.62    PERCENT DISCREPANCY =              3.41



1
 SUMMARY VOLUMETRIC BUDGET FOR GSFLOW 
 DATE: 12 30 1980              CUMULATIVE TIME STEP:      91
 MODFLOW STRESS PERIOD      1     CURRENT TIME STEP:      91     ITERATIONS:       4

 -----------------------------------------------------------------------------------

   CUMULATIVE VOLUMES               L**3   RATES FOR THIS TIME STEP           L**3/T
   ------------------                      ------------------------

                                     IN                                         IN
                                     --                                         --
        PRECIPITATION =        1.8522D+08          PRECIPITATION =                  
           STREAMFLOW =                               STREAMFLOW =                  
     GW BOUNDARY FLOW =                         GW BOUNDARY FLOW =                  


                                    OUT                                        OUT
                                    ---                                        ---
   EVAPOTRANSPIRATION =        1.1531D+08     EVAPOTRANSPIRATION =        1179193.39
           STREAMFLOW =        2.9399D+07             STREAMFLOW =         445276.25
     GW BOUNDARY FLOW =                         GW BOUNDARY FLOW =                  

   INFLOWS - OUTFLOWS =        4.0515D+07     INFLOWS - OUTFLOWS =       -1624469.64
             --------                                   --------

 TOTAL STORAGE CHANGE =        3.7333D+07         STORAGE CHANGE =       -1645985.57
       --------------                             --------------
         LAND SURFACE =        3.5930D+07           LAND SURFACE =        -560583.40
            SOIL ZONE =        1.4722D+07              SOIL ZONE =        -325719.24
     UNSATURATED ZONE =       -1696161.77       UNSATURATED ZONE =           8183.38
       SATURATED ZONE =       -1.3419D+07         SATURATED ZONE =        -163984.25
                LAKES =        1795968.81                  LAKES =        -603882.06

 OVERALL BUDGET ERROR =        3181687.56           BUDGET ERROR =          21515.93


  PERCENT DISCREPANCY =              1.73    PERCENT DISCREPANCY =              1.32



1
 SUMMARY VOLUMETRIC BUDGET FOR GSFLOW 
 DATE: 01 06 1981              CUMULATIVE TIME STEP:      98
 MODFLOW STRESS PERIOD      1     CURRENT TIME STEP:      98     ITERATIONS:      17

 -----------------------------------------------------------------------------------

   CUMULATIVE VOLUMES               L**3   RATES FOR THIS TIME STEP           L**3/T
   ------------------                      ------------------------

                                     IN                                         IN
                                     --                                         --
        PRECIPITATION =        2.0923D+08          PRECIPITATION =                  
           STREAMFLOW =                               STREAMFLOW =                  
     GW BOUNDARY FLOW =                         GW BOUNDARY FLOW =                  


                                    OUT                                        OUT
                                    ---                                        ---
   EVAPOTRANSPIRATION =        1.2266D+08     EVAPOTRANSPIRATION =        1109438.06
           STREAMFLOW =        3.2519D+07             STREAMFLOW =         445539.53
     GW BOUNDARY FLOW =                         GW BOUNDARY FLOW =                  

   INFLOWS - OUTFLOWS =        5.4046D+07     INFLOWS - OUTFLOWS =       -1554977.59
             --------                                   --------

 TOTAL STORAGE CHANGE =        5.0247D+07         STORAGE CHANGE =       -1581446.48
       --------------                             --------------
         LAND SURFACE =        4.1379D+07           LAND SURFACE =        -406171.21
            SOIL ZONE =        1.7918D+07              SOIL ZONE =        -493482.60
     UNSATURATED ZONE =       -1250365.85       UNSATURATED ZONE =          60519.60
       SATURATED ZONE =       -1.4067D+07         SATURATED ZONE =        -191375.59
                LAKES =        6266813.34                  LAKES =        -550936.69

 OVERALL BUDGET ERROR =        3798951.74           BUDGET ERROR =          26468.90


  PERCENT DISCREPANCY =              1.83    PERCENT DISCREPANCY =              1.69



1
 SUMMARY VOLUMETRIC BUDGET FOR GSFLOW 
 DATE: 01 13 1981              CUMULATIVE TIME STEP:     105
 MODFLOW STRESS PERIOD      1     CURRENT TIME STEP:     105     ITERATIONS:      33

 -----------------------------------------------------------------------------------

   CUMULATIVE VOLUMES               L**3   RATES FOR THIS TIME STEP           L**3/T
   ------------------                      ------------------------

                                     IN                                         IN
                                     --                                         --
        PRECIPITATION =        2.1223D+08          PRECIPITATION =                  
           STREAMFLOW =                               STREAMFLOW =                  
     GW BOUNDARY FLOW =                         GW BOUNDARY FLOW =                  


                                    OUT                                        OUT
                                    ---                                        ---
   EVAPOTRANSPIRATION =        1.3079D+08     EVAPOTRANSPIRATION =        1373346.31
           STREAMFLOW =        3.5649D+07             STREAMFLOW =         457519.94
     GW BOUNDARY FLOW =                         GW BOUNDARY FLOW =                  

   INFLOWS - OUTFLOWS =        4.5784D+07     INFLOWS - OUTFLOWS =       -1830866.25
             --------                                   --------

 TOTAL STORAGE CHANGE =        4.1791D+07         STORAGE CHANGE =       -1852296.09
       --------------                             --------------
         LAND SURFACE =        3.9693D+07           LAND SURFACE =        -507648.34
            SOIL ZONE =        1.5722D+07              SOIL ZONE =        -436691.79
     UNSATURATED ZONE =       -1118597.58       UNSATURATED ZONE =         -14765.46
       SATURATED ZONE =       -1.5285D+07         SATURATED ZONE =        -163784.69
                LAKES =        2779979.97                  LAKES =        -729405.81

 OVERALL BUDGET ERROR =        3993333.21           BUDGET ERROR =          21429.84


  PERCENT DISCREPANCY =              1.90    PERCENT DISCREPANCY =              1.16



1
 SUMMARY VOLUMETRIC BUDGET FOR GSFLOW 
 DATE: 01 20 1981              CUMULATIVE TIME STEP:     112
 MODFLOW STRESS PERIOD      1     CURRENT TIME STEP:     112     ITERATIONS:      14

 -----------------------------------------------------------------------------------

   CUMULATIVE VOLUMES               L**3   RATES FOR THIS TIME STEP           L**3/T
   ------------------                      ------------------------

                                     IN                                         IN
                                     --                                         --
        PRECIPITATION =        2.2423D+08          PRECIPITATION =        6001392.59
           STREAMFLOW =                               STREAMFLOW =                  
     GW BOUNDARY FLOW =                         GW BOUNDARY FLOW =                  


                                    OUT                                        OUT
                                    ---                                        ---
   EVAPOTRANSPIRATION =        1.4167D+08     EVAPOTRANSPIRATION =        1828666.06
           STREAMFLOW =        3.9241D+07             STREAMFLOW =         485552.34
     GW BOUNDARY FLOW =                         GW BOUNDARY FLOW =                  

   INFLOWS - OUTFLOWS =        4.3316D+07     INFLOWS - OUTFLOWS =        3687174.19
             --------                                   --------

 TOTAL STORAGE CHANGE =        3.9126D+07         STORAGE CHANGE =        3614723.51
       --------------                             --------------
         LAND SURFACE =        3.7101D+07           LAND SURFACE =         679050.57
            SOIL ZONE =        1.7157D+07              SOIL ZONE =        1237934.53
     UNSATURATED ZONE =        -859757.04       UNSATURATED ZONE =         106209.64
       SATURATED ZONE =       -1.5909D+07         SATURATED ZONE =          85928.02
                LAKES =        1635921.11                  LAKES =        1505600.75

 OVERALL BUDGET ERROR =        4189983.31           BUDGET ERROR =          72450.67


  PERCENT DISCREPANCY =              1.89    PERCENT DISCREPANCY =              1.21



1
 SUMMARY VOLUMETRIC BUDGET FOR GSFLOW 
 DATE: 01 27 1981              CUMULATIVE TIME STEP:     119
 MODFLOW STRESS PERIOD      1     CURRENT TIME STEP:     119     ITERATIONS:       3

 -----------------------------------------------------------------------------------

   CUMULATIVE VOLUMES               L**3   RATES FOR THIS TIME STEP           L**3/T
   ------------------                      ------------------------

                                     IN                                         IN
                                     --                                         --
        PRECIPITATION =        3.3525D+08          PRECIPITATION =        6.0014D+07
           STREAMFLOW =                               STREAMFLOW =                  
     GW BOUNDARY FLOW =                         GW BOUNDARY FLOW =                  


                                    OUT                                        OUT
                                    ---                                        ---
   EVAPOTRANSPIRATION =        1.5062D+08     EVAPOTRANSPIRATION =         667374.94
           STREAMFLOW =        4.1752D+07             STREAMFLOW =         345817.88
     GW BOUNDARY FLOW =                         GW BOUNDARY FLOW =                  

   INFLOWS - OUTFLOWS =        1.4288D+08     INFLOWS - OUTFLOWS =        5.9001D+07
             --------                                   --------

 TOTAL STORAGE CHANGE =        1.3810D+08         STORAGE CHANGE =        5.8498D+07
       --------------                             --------------
         LAND SURFACE =        1.0706D+08           LAND SURFACE =        4.1069D+07
            SOIL ZONE =        1.8987D+07              SOIL ZONE =        1582445.22
     UNSATURATED ZONE =        -359943.89       UNSATURATED ZONE =         103052.00
       SATURATED ZONE =       -1.6630D+07         SATURATED ZONE =         -57209.91
                LAKES =        2.9034D+07                  LAKES =        1.5801D+07

 OVERALL BUDGET ERROR =        4789813.92           BUDGET ERROR =         502461.54


  PERCENT DISCREPANCY =              1.44    PERCENT DISCREPANCY =              0.84



1
 SUMMARY VOLUMETRIC BUDGET FOR GSFLOW 
 DATE: 02 03 1981              CUMULATIVE TIME STEP:     126
 MODFLOW STRESS PERIOD      1     CURRENT TIME STEP:     126     ITERATIONS:      32

 -----------------------------------------------------------------------------------

   CUMULATIVE VOLUMES               L**3   RATES FOR THIS TIME STEP           L**3/T
   ------------------                      ------------------------

                                     IN                                         IN
                                     --                                         --
        PRECIPITATION =        4.0137D+08          PRECIPITATION =                  
           STREAMFLOW =                               STREAMFLOW =                  
     GW BOUNDARY FLOW =                         GW BOUNDARY FLOW =                  


                                    OUT                                        OUT
                                    ---                                        ---
   EVAPOTRANSPIRATION =        1.5428D+08     EVAPOTRANSPIRATION =         907088.09
           STREAMFLOW =        4.4232D+07             STREAMFLOW =         354895.75
     GW BOUNDARY FLOW =                         GW BOUNDARY FLOW =                  

   INFLOWS - OUTFLOWS =        2.0285D+08     INFLOWS - OUTFLOWS =       -1261983.84
             --------                                   --------

 TOTAL STORAGE CHANGE =        1.9758D+08         STORAGE CHANGE =       -1276609.49
       --------------                             --------------
         LAND SURFACE =        1.5342D+08           LAND SURFACE =        -497557.61
            SOIL ZONE =        1.7971D+07              SOIL ZONE =        -138614.39
     UNSATURATED ZONE =         -84464.18       UNSATURATED ZONE =           2279.55
       SATURATED ZONE =       -1.7843D+07         SATURATED ZONE =        -167782.56
                LAKES =        4.4119D+07                  LAKES =        -474934.47

 OVERALL BUDGET ERROR =        5274643.27           BUDGET ERROR =          14625.65


  PERCENT DISCREPANCY =              1.32    PERCENT DISCREPANCY =              1.15



1
 SUMMARY VOLUMETRIC BUDGET FOR GSFLOW 
 DATE: 02 10 1981              CUMULATIVE TIME STEP:     133
 MODFLOW STRESS PERIOD      1     CURRENT TIME STEP:     133     ITERATIONS:       3

 -----------------------------------------------------------------------------------

   CUMULATIVE VOLUMES               L**3   RATES FOR THIS TIME STEP           L**3/T
   ------------------                      ------------------------

                                     IN                                         IN
                                     --                                         --
        PRECIPITATION =        4.1375D+08          PRECIPITATION =        3095932.43
           STREAMFLOW =                               STREAMFLOW =                  
     GW BOUNDARY FLOW =                         GW BOUNDARY FLOW =                  


                                    OUT                                        OUT
                                    ---                                        ---
   EVAPOTRANSPIRATION =        1.5974D+08     EVAPOTRANSPIRATION =         587389.21
           STREAMFLOW =        4.6626D+07             STREAMFLOW =         340307.03
     GW BOUNDARY FLOW =                         GW BOUNDARY FLOW =                  

   INFLOWS - OUTFLOWS =        2.0738D+08     INFLOWS - OUTFLOWS =        2168236.19
             --------                                   --------

 TOTAL STORAGE CHANGE =        2.0192D+08         STORAGE CHANGE =        2129658.20
       --------------                             --------------
         LAND SURFACE =        1.5902D+08           LAND SURFACE =        1678211.96
            SOIL ZONE =        1.7834D+07              SOIL ZONE =         180759.57
     UNSATURATED ZONE =        -146709.76       UNSATURATED ZONE =          -7788.41
       SATURATED ZONE =       -1.8986D+07         SATURATED ZONE =        -156255.77
                LAKES =        4.4197D+07                  LAKES =         434730.84

 OVERALL BUDGET ERROR =        5466569.64           BUDGET ERROR =          38577.99


  PERCENT DISCREPANCY =              1.33    PERCENT DISCREPANCY =              1.25



1
 SUMMARY VOLUMETRIC BUDGET FOR GSFLOW 
 DATE: 02 17 1981              CUMULATIVE TIME STEP:     140
 MODFLOW STRESS PERIOD      1     CURRENT TIME STEP:     140     ITERATIONS:       8

 -----------------------------------------------------------------------------------

   CUMULATIVE VOLUMES               L**3   RATES FOR THIS TIME STEP           L**3/T
   ------------------                      ------------------------

                                     IN                                         IN
                                     --                                         --
        PRECIPITATION =        4.6328D+08          PRECIPITATION =                  
           STREAMFLOW =                               STREAMFLOW =                  
     GW BOUNDARY FLOW =                         GW BOUNDARY FLOW =                  


                                    OUT                                        OUT
                                    ---                                        ---
   EVAPOTRANSPIRATION =        1.7113D+08     EVAPOTRANSPIRATION =        2634479.01
           STREAMFLOW =        4.8976D+07             STREAMFLOW =         285309.75
     GW BOUNDARY FLOW =                         GW BOUNDARY FLOW =                  

   INFLOWS - OUTFLOWS =        2.4318D+08     INFLOWS - OUTFLOWS =       -2919788.76
             --------                                   --------

 TOTAL STORAGE CHANGE =        2.3706D+08         STORAGE CHANGE =       -2915312.34
       --------------                             --------------
         LAND SURFACE =        1.7469D+08           LAND SURFACE =       -2197532.98
            SOIL ZONE =        2.4164D+07              SOIL ZONE =         -18967.75
     UNSATURATED ZONE =         481984.64       UNSATURATED ZONE =          80883.67
       SATURATED ZONE =       -1.9237D+07         SATURATED ZONE =        -124958.34
                LAKES =        5.6956D+07                  LAKES =        -654736.94

 OVERALL BUDGET ERROR =        6122580.48           BUDGET ERROR =          -4476.42


  PERCENT DISCREPANCY =              1.33    PERCENT DISCREPANCY =             -0.15



1
 SUMMARY VOLUMETRIC BUDGET FOR GSFLOW 
 DATE: 02 24 1981              CUMULATIVE TIME STEP:     147
 MODFLOW STRESS PERIOD      1     CURRENT TIME STEP:     147     ITERATIONS:      17

 -----------------------------------------------------------------------------------

   CUMULATIVE VOLUMES               L**3   RATES FOR THIS TIME STEP           L**3/T
   ------------------                      ------------------------

                                     IN                                         IN
                                     --                                         --
        PRECIPITATION =        4.8805D+08          PRECIPITATION =        1.8576D+07
           STREAMFLOW =                               STREAMFLOW =                  
     GW BOUNDARY FLOW =                         GW BOUNDARY FLOW =                  


                                    OUT                                        OUT
                                    ---                                        ---
   EVAPOTRANSPIRATION =        1.8459D+08     EVAPOTRANSPIRATION =        1367449.55
           STREAMFLOW =        5.0059D+07             STREAMFLOW =         143109.50
     GW BOUNDARY FLOW =                         GW BOUNDARY FLOW =                  

   INFLOWS - OUTFLOWS =        2.5340D+08     INFLOWS - OUTFLOWS =        1.7065D+07
             --------                                   --------

 TOTAL STORAGE CHANGE =        2.4684D+08         STORAGE CHANGE =        1.6913D+07
       --------------                             --------------
         LAND SURFACE =        1.7577D+08           LAND SURFACE =        1.1074D+07
            SOIL ZONE =        2.6326D+07              SOIL ZONE =         447741.03
     UNSATURATED ZONE =       -1277964.43       UNSATURATED ZONE =         264091.27
       SATURATED ZONE =       -1.7683D+07         SATURATED ZONE =            436.05
                LAKES =        6.3701D+07                  LAKES =        5126706.00

 OVERALL BUDGET ERROR =        6557376.53           BUDGET ERROR =         151658.88


  PERCENT DISCREPANCY =              1.35    PERCENT DISCREPANCY =              0.82



1
 SUMMARY VOLUMETRIC BUDGET FOR GSFLOW 
 DATE: 03 03 1981              CUMULATIVE TIME STEP:     154
 MODFLOW STRESS PERIOD      1     CURRENT TIME STEP:     154     ITERATIONS:      22

 -----------------------------------------------------------------------------------

   CUMULATIVE VOLUMES               L**3   RATES FOR THIS TIME STEP           L**3/T
   ------------------                      ------------------------

                                     IN                                         IN
                                     --                                         --
        PRECIPITATION =        5.0056D+08          PRECIPITATION =                  
           STREAMFLOW =                               STREAMFLOW =                  
     GW BOUNDARY FLOW =                         GW BOUNDARY FLOW =                  


                                    OUT                                        OUT
                                    ---                                        ---
   EVAPOTRANSPIRATION =        1.9326D+08     EVAPOTRANSPIRATION =        2202963.88
           STREAMFLOW =        5.1106D+07             STREAMFLOW =         161585.06
     GW BOUNDARY FLOW =                         GW BOUNDARY FLOW =                  

   INFLOWS - OUTFLOWS =        2.5619D+08     INFLOWS - OUTFLOWS =       -2364548.94
             --------                                   --------

 TOTAL STORAGE CHANGE =        2.4926D+08         STORAGE CHANGE =       -2400389.20
       --------------                             --------------
         LAND SURFACE =        1.7857D+08           LAND SURFACE =       -1130017.74
            SOIL ZONE =        2.4627D+07              SOIL ZONE =        -310272.63
     UNSATURATED ZONE =        -645109.42       UNSATURATED ZONE =         -23873.71
       SATURATED ZONE =       -1.8916D+07         SATURATED ZONE =        -177266.06
                LAKES =        6.5627D+07                  LAKES =        -758959.06

 OVERALL BUDGET ERROR =        6928131.08           BUDGET ERROR =          35840.26


  PERCENT DISCREPANCY =              1.39    PERCENT DISCREPANCY =              1.50



1
 SUMMARY VOLUMETRIC BUDGET FOR GSFLOW 
 DATE: 03 10 1981              CUMULATIVE TIME STEP:     161
 MODFLOW STRESS PERIOD      1     CURRENT TIME STEP:     161     ITERATIONS:      27

 -----------------------------------------------------------------------------------

   CUMULATIVE VOLUMES               L**3   RATES FOR THIS TIME STEP           L**3/T
   ------------------                      ------------------------

                                     IN                                         IN
                                     --                                         --
        PRECIPITATION =        5.0378D+08          PRECIPITATION =        3221591.34
           STREAMFLOW =                               STREAMFLOW =                  
     GW BOUNDARY FLOW =                         GW BOUNDARY FLOW =                  


                                    OUT                                        OUT
                                    ---                                        ---
   EVAPOTRANSPIRATION =        2.1047D+08     EVAPOTRANSPIRATION =        1944951.19
           STREAMFLOW =        5.2250D+07             STREAMFLOW =         164233.09
     GW BOUNDARY FLOW =                         GW BOUNDARY FLOW =                  

   INFLOWS - OUTFLOWS =        2.4106D+08     INFLOWS - OUTFLOWS =        1112407.05
             --------                                   --------

 TOTAL STORAGE CHANGE =        2.3387D+08         STORAGE CHANGE =        1061298.23
       --------------                             --------------
         LAND SURFACE =        1.6651D+08           LAND SURFACE =       -1622433.43
            SOIL ZONE =        2.5300D+07              SOIL ZONE =        1094287.11
     UNSATURATED ZONE =        -839193.75       UNSATURATED ZONE =         117004.01
       SATURATED ZONE =       -1.9555D+07         SATURATED ZONE =          99563.55
                LAKES =        6.2457D+07                  LAKES =        1372877.00

 OVERALL BUDGET ERROR =        7196049.83           BUDGET ERROR =          51108.82


  PERCENT DISCREPANCY =              1.44    PERCENT DISCREPANCY =              1.60



1
 SUMMARY VOLUMETRIC BUDGET FOR GSFLOW 
 DATE: 03 17 1981              CUMULATIVE TIME STEP:     168
 MODFLOW STRESS PERIOD      1     CURRENT TIME STEP:     168     ITERATIONS:      32

 -----------------------------------------------------------------------------------

   CUMULATIVE VOLUMES               L**3   RATES FOR THIS TIME STEP           L**3/T
   ------------------                      ------------------------

                                     IN                                         IN
                                     --                                         --
        PRECIPITATION =        5.1345D+08          PRECIPITATION =        3221591.34
           STREAMFLOW =                               STREAMFLOW =                  
     GW BOUNDARY FLOW =                         GW BOUNDARY FLOW =                  


                                    OUT                                        OUT
                                    ---                                        ---
   EVAPOTRANSPIRATION =        2.2517D+08     EVAPOTRANSPIRATION =        1067726.07
           STREAMFLOW =        5.3446D+07             STREAMFLOW =         174601.52
     GW BOUNDARY FLOW =                         GW BOUNDARY FLOW =                  

   INFLOWS - OUTFLOWS =        2.3483D+08     INFLOWS - OUTFLOWS =        1979263.75
             --------                                   --------

 TOTAL STORAGE CHANGE =        2.2734D+08         STORAGE CHANGE =        1940185.07
       --------------                             --------------
         LAND SURFACE =        1.6276D+08           LAND SURFACE =        1576749.47
            SOIL ZONE =        2.4531D+07              SOIL ZONE =         -31958.56
     UNSATURATED ZONE =        -809649.93       UNSATURATED ZONE =        -118830.06
       SATURATED ZONE =       -2.0359D+07         SATURATED ZONE =         -13453.78
                LAKES =        6.1220D+07                  LAKES =         527678.00

 OVERALL BUDGET ERROR =        7485024.64           BUDGET ERROR =          39078.68


  PERCENT DISCREPANCY =              1.47    PERCENT DISCREPANCY =              1.22



1
 SUMMARY VOLUMETRIC BUDGET FOR GSFLOW 
 DATE: 03 24 1981              CUMULATIVE TIME STEP:     175
 MODFLOW STRESS PERIOD      1     CURRENT TIME STEP:     175     ITERATIONS:      44

 -----------------------------------------------------------------------------------

   CUMULATIVE VOLUMES               L**3   RATES FOR THIS TIME STEP           L**3/T
   ------------------                      ------------------------

                                     IN                                         IN
                                     --                                         --
        PRECIPITATION =        5.7144D+08          PRECIPITATION =        6443182.67
           STREAMFLOW =                               STREAMFLOW =                  
     GW BOUNDARY FLOW =                         GW BOUNDARY FLOW =                  


                                    OUT                                        OUT
                                    ---                                        ---
   EVAPOTRANSPIRATION =        2.3942D+08     EVAPOTRANSPIRATION =        1737787.33
           STREAMFLOW =        5.4584D+07             STREAMFLOW =         165413.89
     GW BOUNDARY FLOW =                         GW BOUNDARY FLOW =                  

   INFLOWS - OUTFLOWS =        2.7743D+08     INFLOWS - OUTFLOWS =        4539981.45
             --------                                   --------

 TOTAL STORAGE CHANGE =        2.6932D+08         STORAGE CHANGE =        4460223.01
       --------------                             --------------
         LAND SURFACE =        1.9079D+08           LAND SURFACE =        1628171.77
            SOIL ZONE =        2.6547D+07              SOIL ZONE =         621697.21
     UNSATURATED ZONE =        -407195.43       UNSATURATED ZONE =         118250.54
       SATURATED ZONE =       -2.0933D+07         SATURATED ZONE =          65574.11
                LAKES =        7.3323D+07                  LAKES =        2026529.38

 OVERALL BUDGET ERROR =        8113716.68           BUDGET ERROR =          79758.44


  PERCENT DISCREPANCY =              1.43    PERCENT DISCREPANCY =              1.25



1
 SUMMARY VOLUMETRIC BUDGET FOR GSFLOW 
 DATE: 03 31 1981              CUMULATIVE TIME STEP:     182
 MODFLOW STRESS PERIOD      1     CURRENT TIME STEP:     182     ITERATIONS:      27

 -----------------------------------------------------------------------------------

   CUMULATIVE VOLUMES               L**3   RATES FOR THIS TIME STEP           L**3/T
   ------------------                      ------------------------

                                     IN                                         IN
                                     --                                         --
        PRECIPITATION =        6.3587D+08          PRECIPITATION =        6443182.67
           STREAMFLOW =                               STREAMFLOW =                  
     GW BOUNDARY FLOW =                         GW BOUNDARY FLOW =                  


                                    OUT                                        OUT
                                    ---                                        ---
   EVAPOTRANSPIRATION =        2.5420D+08     EVAPOTRANSPIRATION =        1161677.85
           STREAMFLOW =        5.5764D+07             STREAMFLOW =         154629.45
     GW BOUNDARY FLOW =                         GW BOUNDARY FLOW =                  

   INFLOWS - OUTFLOWS =        3.2590D+08     INFLOWS - OUTFLOWS =        5126875.37
             --------                                   --------

 TOTAL STORAGE CHANGE =        3.1721D+08         STORAGE CHANGE =        5059875.41
       --------------                             --------------
         LAND SURFACE =        2.1630D+08           LAND SURFACE =        2846262.69
            SOIL ZONE =        2.8026D+07              SOIL ZONE =         355262.92
     UNSATURATED ZONE =       -4037578.99       UNSATURATED ZONE =         142541.46
       SATURATED ZONE =       -1.7671D+07         SATURATED ZONE =         -80070.41
                LAKES =        9.4602D+07                  LAKES =        1795878.75

 OVERALL BUDGET ERROR =        8686208.83           BUDGET ERROR =          66999.96


  PERCENT DISCREPANCY =              1.38    PERCENT DISCREPANCY =              1.05



1
 SUMMARY VOLUMETRIC BUDGET FOR GSFLOW 
 DATE: 04 07 1981              CUMULATIVE TIME STEP:     189
 MODFLOW STRESS PERIOD      1     CURRENT TIME STEP:     189     ITERATIONS:      33

 -----------------------------------------------------------------------------------

   CUMULATIVE VOLUMES               L**3   RATES FOR THIS TIME STEP           L**3/T
   ------------------                      ------------------------

                                     IN                                         IN
                                     --                                         --
        PRECIPITATION =        6.5328D+08          PRECIPITATION =                  
           STREAMFLOW =                               STREAMFLOW =                  
     GW BOUNDARY FLOW =                         GW BOUNDARY FLOW =                  


                                    OUT                                        OUT
                                    ---                                        ---
   EVAPOTRANSPIRATION =        2.7773D+08     EVAPOTRANSPIRATION =        4297932.47
           STREAMFLOW =        5.6903D+07             STREAMFLOW =         205152.27
     GW BOUNDARY FLOW =                         GW BOUNDARY FLOW =                  

   INFLOWS - OUTFLOWS =        3.1865D+08     INFLOWS - OUTFLOWS =       -4503084.74
             --------                                   --------

 TOTAL STORAGE CHANGE =        3.0966D+08         STORAGE CHANGE =       -4543473.92
       --------------                             --------------
         LAND SURFACE =        1.9516D+08           LAND SURFACE =       -6725266.72
            SOIL ZONE =        2.8955D+07              SOIL ZONE =          14025.85
     UNSATURATED ZONE =       -2945343.82       UNSATURATED ZONE =         194340.11
       SATURATED ZONE =       -1.6554D+07         SATURATED ZONE =         269907.09
                LAKES =        1.0505D+08                  LAKES =        1703519.75

 OVERALL BUDGET ERROR =        8989142.44           BUDGET ERROR =          40389.18


  PERCENT DISCREPANCY =              1.39    PERCENT DISCREPANCY =              0.89



1
 SUMMARY VOLUMETRIC BUDGET FOR GSFLOW 
 DATE: 04 14 1981              CUMULATIVE TIME STEP:     196
 MODFLOW STRESS PERIOD      1     CURRENT TIME STEP:     196     ITERATIONS:      27

 -----------------------------------------------------------------------------------

   CUMULATIVE VOLUMES               L**3   RATES FOR THIS TIME STEP           L**3/T
   ------------------                      ------------------------

                                     IN                                         IN
                                     --                                         --
        PRECIPITATION =        6.5328D+08          PRECIPITATION =                  
           STREAMFLOW =                               STREAMFLOW =                  
     GW BOUNDARY FLOW =                         GW BOUNDARY FLOW =                  


                                    OUT                                        OUT
                                    ---                                        ---
   EVAPOTRANSPIRATION =        3.0752D+08     EVAPOTRANSPIRATION =        5152385.37
           STREAMFLOW =        5.8151D+07             STREAMFLOW =         171662.34
     GW BOUNDARY FLOW =                         GW BOUNDARY FLOW =                  

   INFLOWS - OUTFLOWS =        2.8761D+08     INFLOWS - OUTFLOWS =       -5324047.72
             --------                                   --------

 TOTAL STORAGE CHANGE =        2.7849D+08         STORAGE CHANGE =       -5346505.01
       --------------                             --------------
         LAND SURFACE =        1.4952D+08           LAND SURFACE =       -7568090.80
            SOIL ZONE =        2.4609D+07              SOIL ZONE =        -907530.93
     UNSATURATED ZONE =       -1088633.27       UNSATURATED ZONE =         331776.71
       SATURATED ZONE =       -1.4925D+07         SATURATED ZONE =         263475.50
                LAKES =        1.2037D+08                  LAKES =        2533864.50

 OVERALL BUDGET ERROR =        9121775.89           BUDGET ERROR =          22457.30


  PERCENT DISCREPANCY =              1.41    PERCENT DISCREPANCY =              0.42



1
 SUMMARY VOLUMETRIC BUDGET FOR GSFLOW 
 DATE: 04 21 1981              CUMULATIVE TIME STEP:     203
 MODFLOW STRESS PERIOD      1     CURRENT TIME STEP:     203     ITERATIONS:      53

 -----------------------------------------------------------------------------------

   CUMULATIVE VOLUMES               L**3   RATES FOR THIS TIME STEP           L**3/T
   ------------------                      ------------------------

                                     IN                                         IN
                                     --                                         --
        PRECIPITATION =        6.7418D+08          PRECIPITATION =                  
           STREAMFLOW =                               STREAMFLOW =                  
     GW BOUNDARY FLOW =                         GW BOUNDARY FLOW =                  


                                    OUT                                        OUT
                                    ---                                        ---
   EVAPOTRANSPIRATION =        3.3752D+08     EVAPOTRANSPIRATION =        5644432.32
           STREAMFLOW =        5.9365D+07             STREAMFLOW =         169583.81
     GW BOUNDARY FLOW =                         GW BOUNDARY FLOW =                  

   INFLOWS - OUTFLOWS =        2.7729D+08     INFLOWS - OUTFLOWS =       -5814016.13
             --------                                   --------

 TOTAL STORAGE CHANGE =        2.6798D+08         STORAGE CHANGE =       -5820598.44
       --------------                             --------------
         LAND SURFACE =        1.2661D+08           LAND SURFACE =       -3418279.33
            SOIL ZONE =        2.2629D+07              SOIL ZONE =       -2024544.05
     UNSATURATED ZONE =         493099.09       UNSATURATED ZONE =         194566.76
       SATURATED ZONE =       -1.4971D+07         SATURATED ZONE =         -93909.39
                LAKES =        1.3322D+08                  LAKES =        -478432.44

 OVERALL BUDGET ERROR =        9311312.93           BUDGET ERROR =           6582.31


  PERCENT DISCREPANCY =              1.39    PERCENT DISCREPANCY =              0.11



1
 SUMMARY VOLUMETRIC BUDGET FOR GSFLOW 
 DATE: 04 28 1981              CUMULATIVE TIME STEP:     210
 MODFLOW STRESS PERIOD      1     CURRENT TIME STEP:     210     ITERATIONS:      11

 -----------------------------------------------------------------------------------

   CUMULATIVE VOLUMES               L**3   RATES FOR THIS TIME STEP           L**3/T
   ------------------                      ------------------------

                                     IN                                         IN
                                     --                                         --
        PRECIPITATION =        6.8114D+08          PRECIPITATION =                  
           STREAMFLOW =                               STREAMFLOW =                  
     GW BOUNDARY FLOW =                         GW BOUNDARY FLOW =                  


                                    OUT                                        OUT
                                    ---                                        ---
   EVAPOTRANSPIRATION =        3.7927D+08     EVAPOTRANSPIRATION =        5719034.06
           STREAMFLOW =        6.0576D+07             STREAMFLOW =         169029.56
     GW BOUNDARY FLOW =                         GW BOUNDARY FLOW =                  

   INFLOWS - OUTFLOWS =        2.4130D+08     INFLOWS - OUTFLOWS =       -5888063.63
             --------                                   --------

 TOTAL STORAGE CHANGE =        2.3175D+08         STORAGE CHANGE =       -6037791.60
       --------------                             --------------
         LAND SURFACE =        1.0030D+08           LAND SURFACE =       -4231330.35
            SOIL ZONE =        1.2763D+07              SOIL ZONE =       -1631539.40
     UNSATURATED ZONE =         592511.46       UNSATURATED ZONE =         -50665.85
       SATURATED ZONE =       -1.5101D+07         SATURATED ZONE =          22501.95
                LAKES =        1.3319D+08                  LAKES =        -146757.95

 OVERALL BUDGET ERROR =        9552953.47           BUDGET ERROR =         149727.97


  PERCENT DISCREPANCY =              1.41    PERCENT DISCREPANCY =              2.51



1
 SUMMARY VOLUMETRIC BUDGET FOR GSFLOW 
 DATE: 05 05 1981              CUMULATIVE TIME STEP:     217
 MODFLOW STRESS PERIOD      1     CURRENT TIME STEP:     217     ITERATIONS:      40

 -----------------------------------------------------------------------------------

   CUMULATIVE VOLUMES               L**3   RATES FOR THIS TIME STEP           L**3/T
   ------------------                      ------------------------

                                     IN                                         IN
                                     --                                         --
        PRECIPITATION =        6.8811D+08          PRECIPITATION =                  
           STREAMFLOW =                               STREAMFLOW =                  
     GW BOUNDARY FLOW =                         GW BOUNDARY FLOW =                  


                                    OUT                                        OUT
                                    ---                                        ---
   EVAPOTRANSPIRATION =        4.1784D+08     EVAPOTRANSPIRATION =        3856957.30
           STREAMFLOW =        6.1794D+07             STREAMFLOW =         173795.95
     GW BOUNDARY FLOW =                         GW BOUNDARY FLOW =                  

   INFLOWS - OUTFLOWS =        2.0848D+08     INFLOWS - OUTFLOWS =       -4030753.26
             --------                                   --------

 TOTAL STORAGE CHANGE =        1.9887D+08         STORAGE CHANGE =       -4041142.52
       --------------                             --------------
         LAND SURFACE =        7.3789D+07           LAND SURFACE =       -3130434.25
            SOIL ZONE =        6298362.49              SOIL ZONE =        -897408.26
     UNSATURATED ZONE =       -1044182.01       UNSATURATED ZONE =        -115295.85
       SATURATED ZONE =       -1.4193D+07         SATURATED ZONE =         -20796.86
                LAKES =        1.3402D+08                  LAKES =         122792.70

 OVERALL BUDGET ERROR =        9609233.36           BUDGET ERROR =          10389.27


  PERCENT DISCREPANCY =              1.41    PERCENT DISCREPANCY =              0.26



1
 SUMMARY VOLUMETRIC BUDGET FOR GSFLOW 
 DATE: 05 12 1981              CUMULATIVE TIME STEP:     224
 MODFLOW STRESS PERIOD      1     CURRENT TIME STEP:     224     ITERATIONS:      61

 -----------------------------------------------------------------------------------

   CUMULATIVE VOLUMES               L**3   RATES FOR THIS TIME STEP           L**3/T
   ------------------                      ------------------------

                                     IN                                         IN
                                     --                                         --
        PRECIPITATION =        6.8811D+08          PRECIPITATION =                  
           STREAMFLOW =                               STREAMFLOW =                  
     GW BOUNDARY FLOW =                         GW BOUNDARY FLOW =                  


                                    OUT                                        OUT
                                    ---                                        ---
   EVAPOTRANSPIRATION =        4.4710D+08     EVAPOTRANSPIRATION =        4648869.47
           STREAMFLOW =        6.2990D+07             STREAMFLOW =         168853.17
     GW BOUNDARY FLOW =                         GW BOUNDARY FLOW =                  

   INFLOWS - OUTFLOWS =        1.7802D+08     INFLOWS - OUTFLOWS =       -4817722.65
             --------                                   --------

 TOTAL STORAGE CHANGE =        1.6845D+08         STORAGE CHANGE =       -4820496.57
       --------------                             --------------
         LAND SURFACE =        4.8958D+07           LAND SURFACE =       -3669074.63
            SOIL ZONE =        -185582.51              SOIL ZONE =        -933365.27
     UNSATURATED ZONE =       -3748161.92       UNSATURATED ZONE =        -942536.35
       SATURATED ZONE =       -1.2876D+07         SATURATED ZONE =         525539.25
                LAKES =        1.3630D+08                  LAKES =         198940.42

 OVERALL BUDGET ERROR =        9566060.47           BUDGET ERROR =           2773.93


  PERCENT DISCREPANCY =              1.40    PERCENT DISCREPANCY =              0.06



1
 SUMMARY VOLUMETRIC BUDGET FOR GSFLOW 
 DATE: 05 19 1981              CUMULATIVE TIME STEP:     231
 MODFLOW STRESS PERIOD      1     CURRENT TIME STEP:     231     ITERATIONS:      33

 -----------------------------------------------------------------------------------

   CUMULATIVE VOLUMES               L**3   RATES FOR THIS TIME STEP           L**3/T
   ------------------                      ------------------------

                                     IN                                         IN
                                     --                                         --
        PRECIPITATION =        7.4671D+08          PRECIPITATION =        3447112.78
           STREAMFLOW =                               STREAMFLOW =                  
     GW BOUNDARY FLOW =                         GW BOUNDARY FLOW =                  


                                    OUT                                        OUT
                                    ---                                        ---
   EVAPOTRANSPIRATION =        4.6538D+08     EVAPOTRANSPIRATION =        1735469.41
           STREAMFLOW =        6.4181D+07             STREAMFLOW =         172527.11
     GW BOUNDARY FLOW =                         GW BOUNDARY FLOW =                  

   INFLOWS - OUTFLOWS =        2.1715D+08     INFLOWS - OUTFLOWS =        1539116.26
             --------                                   --------

 TOTAL STORAGE CHANGE =        2.0688D+08         STORAGE CHANGE =        1512869.36
       --------------                             --------------
         LAND SURFACE =        5.2394D+07           LAND SURFACE =       -3369163.44
            SOIL ZONE =        1.0826D+07              SOIL ZONE =        1990453.69
     UNSATURATED ZONE =       -3970287.17       UNSATURATED ZONE =          40165.98
       SATURATED ZONE =       -1.2589D+07         SATURATED ZONE =          66338.12
                LAKES =        1.6022D+08                  LAKES =        2785075.00

 OVERALL BUDGET ERROR =        1.0273D+07           BUDGET ERROR =          26246.90


  PERCENT DISCREPANCY =              1.39    PERCENT DISCREPANCY =              0.76



1
 SUMMARY VOLUMETRIC BUDGET FOR GSFLOW 
 DATE: 05 26 1981              CUMULATIVE TIME STEP:     238
 MODFLOW STRESS PERIOD      1     CURRENT TIME STEP:     238     ITERATIONS:      51

 -----------------------------------------------------------------------------------

   CUMULATIVE VOLUMES               L**3   RATES FOR THIS TIME STEP           L**3/T
   ------------------                      ------------------------

                                     IN                                         IN
                                     --                                         --
        PRECIPITATION =        7.7429D+08          PRECIPITATION =        1.7236D+07
           STREAMFLOW =                               STREAMFLOW =                  
     GW BOUNDARY FLOW =                         GW BOUNDARY FLOW =                  


                                    OUT                                        OUT
                                    ---                                        ---
   EVAPOTRANSPIRATION =        4.9656D+08     EVAPOTRANSPIRATION =        2624012.61
           STREAMFLOW =        6.5382D+07             STREAMFLOW =         180466.28
     GW BOUNDARY FLOW =                         GW BOUNDARY FLOW =                  

   INFLOWS - OUTFLOWS =        2.1234D+08     INFLOWS - OUTFLOWS =        1.4431D+07
             --------                                   --------

 TOTAL STORAGE CHANGE =        2.0188D+08         STORAGE CHANGE =        1.4355D+07
       --------------                             --------------
         LAND SURFACE =        3.4112D+07           LAND SURFACE =        -222963.76
            SOIL ZONE =        9414576.43              SOIL ZONE =        4575051.68
     UNSATURATED ZONE =       -3845377.44       UNSATURATED ZONE =          52084.63
       SATURATED ZONE =       -1.1917D+07         SATURATED ZONE =         564855.12
                LAKES =        1.7412D+08                  LAKES =        9385991.00

 OVERALL BUDGET ERROR =        1.0458D+07           BUDGET ERROR =          76066.09


  PERCENT DISCREPANCY =              1.36    PERCENT DISCREPANCY =              0.44



1
 SUMMARY VOLUMETRIC BUDGET FOR GSFLOW 
 DATE: 06 02 1981              CUMULATIVE TIME STEP:     245
 MODFLOW STRESS PERIOD      1     CURRENT TIME STEP:     245     ITERATIONS:      65

 -----------------------------------------------------------------------------------

   CUMULATIVE VOLUMES               L**3   RATES FOR THIS TIME STEP           L**3/T
   ------------------                      ------------------------

                                     IN                                         IN
                                     --                                         --
        PRECIPITATION =        7.7429D+08          PRECIPITATION =                  
           STREAMFLOW =                               STREAMFLOW =                  
     GW BOUNDARY FLOW =                         GW BOUNDARY FLOW =                  


                                    OUT                                        OUT
                                    ---                                        ---
   EVAPOTRANSPIRATION =        5.3760D+08     EVAPOTRANSPIRATION =        5894888.51
           STREAMFLOW =        6.6602D+07             STREAMFLOW =         178725.95
     GW BOUNDARY FLOW =                         GW BOUNDARY FLOW =                  

   INFLOWS - OUTFLOWS =        1.7009D+08     INFLOWS - OUTFLOWS =       -6073614.47
             --------                                   --------

 TOTAL STORAGE CHANGE =        1.5963D+08         STORAGE CHANGE =       -6070867.07
       --------------                             --------------
         LAND SURFACE =        2.0625D+07           LAND SURFACE =       -1585396.72
            SOIL ZONE =       -6670309.27              SOIL ZONE =       -1961811.44
     UNSATURATED ZONE =       -8645316.41       UNSATURATED ZONE =        -224258.70
       SATURATED ZONE =       -1.0394D+07         SATURATED ZONE =        -227092.97
                LAKES =        1.6471D+08                  LAKES =       -2072307.25

 OVERALL BUDGET ERROR =        1.0461D+07           BUDGET ERROR =          -2747.40


  PERCENT DISCREPANCY =              1.36    PERCENT DISCREPANCY =             -0.05



1
 SUMMARY VOLUMETRIC BUDGET FOR GSFLOW 
 DATE: 06 09 1981              CUMULATIVE TIME STEP:     252
 MODFLOW STRESS PERIOD      1     CURRENT TIME STEP:     252     ITERATIONS:      19

 -----------------------------------------------------------------------------------

   CUMULATIVE VOLUMES               L**3   RATES FOR THIS TIME STEP           L**3/T
   ------------------                      ------------------------

                                     IN                                         IN
                                     --                                         --
        PRECIPITATION =        7.7752D+08          PRECIPITATION =                  
           STREAMFLOW =                               STREAMFLOW =                  
     GW BOUNDARY FLOW =                         GW BOUNDARY FLOW =                  


                                    OUT                                        OUT
                                    ---                                        ---
   EVAPOTRANSPIRATION =        5.7525D+08     EVAPOTRANSPIRATION =        5577916.86
           STREAMFLOW =        6.7846D+07             STREAMFLOW =         203133.83
     GW BOUNDARY FLOW =                         GW BOUNDARY FLOW =                  

   INFLOWS - OUTFLOWS =        1.3443D+08     INFLOWS - OUTFLOWS =       -5781050.68
             --------                                   --------

 TOTAL STORAGE CHANGE =        1.2394D+08         STORAGE CHANGE =       -5782567.61
       --------------                             --------------
         LAND SURFACE =        1.0713D+07           LAND SURFACE =       -1034007.28
            SOIL ZONE =       -1.7576D+07              SOIL ZONE =       -1814953.21
     UNSATURATED ZONE =       -1.0260D+07       UNSATURATED ZONE =        -269763.58
       SATURATED ZONE =       -1.1600D+07         SATURATED ZONE =        -237246.28
                LAKES =        1.5267D+08                  LAKES =       -2426597.25

 OVERALL BUDGET ERROR =        1.0486D+07           BUDGET ERROR =           1516.93


  PERCENT DISCREPANCY =              1.36    PERCENT DISCREPANCY =              0.03



1
 SUMMARY VOLUMETRIC BUDGET FOR GSFLOW 
 DATE: 06 16 1981              CUMULATIVE TIME STEP:     259
 MODFLOW STRESS PERIOD      1     CURRENT TIME STEP:     259     ITERATIONS:      32

 -----------------------------------------------------------------------------------

   CUMULATIVE VOLUMES               L**3   RATES FOR THIS TIME STEP           L**3/T
   ------------------                      ------------------------

                                     IN                                         IN
                                     --                                         --
        PRECIPITATION =        7.7752D+08          PRECIPITATION =                  
           STREAMFLOW =                               STREAMFLOW =                  
     GW BOUNDARY FLOW =                         GW BOUNDARY FLOW =                  


                                    OUT                                        OUT
                                    ---                                        ---
   EVAPOTRANSPIRATION =        6.0412D+08     EVAPOTRANSPIRATION =        4900430.37
           STREAMFLOW =        7.0953D+07             STREAMFLOW =         702199.94
     GW BOUNDARY FLOW =                         GW BOUNDARY FLOW =                  

   INFLOWS - OUTFLOWS =        1.0245D+08     INFLOWS - OUTFLOWS =       -5602630.30
             --------                                   --------

[...]
       SATURATED ZONE =       -4.4100D+07         SATURATED ZONE =          66113.67
                LAKES =        7.9206D+08                  LAKES =        2370110.25

 OVERALL BUDGET ERROR =        4.8921D+07           BUDGET ERROR =          -4728.08


  PERCENT DISCREPANCY =              1.01    PERCENT DISCREPANCY =             -0.06



1
 SUMMARY VOLUMETRIC BUDGET FOR GSFLOW 
 DATE: 07 05 1983              CUMULATIVE TIME STEP:    1008
 MODFLOW STRESS PERIOD      1     CURRENT TIME STEP:    1008     ITERATIONS:      22

 -----------------------------------------------------------------------------------

   CUMULATIVE VOLUMES               L**3   RATES FOR THIS TIME STEP           L**3/T
   ------------------                      ------------------------

                                     IN                                         IN
                                     --                                         --
        PRECIPITATION =        4.8577D+09          PRECIPITATION =                  
           STREAMFLOW =                               STREAMFLOW =                  
     GW BOUNDARY FLOW =                         GW BOUNDARY FLOW =                  


                                    OUT                                        OUT
                                    ---                                        ---
   EVAPOTRANSPIRATION =        2.5231D+09     EVAPOTRANSPIRATION =        6996774.52
           STREAMFLOW =        1.3427D+09             STREAMFLOW =        1965034.75
     GW BOUNDARY FLOW =                         GW BOUNDARY FLOW =                  

   INFLOWS - OUTFLOWS =        9.9201D+08     INFLOWS - OUTFLOWS =       -8961809.27
             --------                                   --------

 TOTAL STORAGE CHANGE =        9.4233D+08         STORAGE CHANGE =       -8969708.11
       --------------                             --------------
         LAND SURFACE =        1.6241D+08           LAND SURFACE =       -8762427.62
            SOIL ZONE =        1.2533D+07              SOIL ZONE =       -1391632.97
     UNSATURATED ZONE =       -3858326.76       UNSATURATED ZONE =        -179692.50
       SATURATED ZONE =       -4.4019D+07         SATURATED ZONE =          12897.36
                LAKES =        8.1527D+08                  LAKES =        1351147.62

 OVERALL BUDGET ERROR =        4.9677D+07           BUDGET ERROR =           7898.84


  PERCENT DISCREPANCY =              1.03    PERCENT DISCREPANCY =              0.09



1
 SUMMARY VOLUMETRIC BUDGET FOR GSFLOW 
 DATE: 07 12 1983              CUMULATIVE TIME STEP:    1015
 MODFLOW STRESS PERIOD      1     CURRENT TIME STEP:    1015     ITERATIONS:      13

 -----------------------------------------------------------------------------------

   CUMULATIVE VOLUMES               L**3   RATES FOR THIS TIME STEP           L**3/T
   ------------------                      ------------------------

                                     IN                                         IN
                                     --                                         --
        PRECIPITATION =        4.8577D+09          PRECIPITATION =                  
           STREAMFLOW =                               STREAMFLOW =                  
     GW BOUNDARY FLOW =                         GW BOUNDARY FLOW =                  


                                    OUT                                        OUT
                                    ---                                        ---
   EVAPOTRANSPIRATION =        2.5520D+09     EVAPOTRANSPIRATION =        6204618.31
           STREAMFLOW =        1.3693D+09             STREAMFLOW =        4134799.75
     GW BOUNDARY FLOW =                         GW BOUNDARY FLOW =                  

   INFLOWS - OUTFLOWS =        9.3640D+08     INFLOWS - OUTFLOWS =       -1.0339D+07
             --------                                   --------

 TOTAL STORAGE CHANGE =        8.8665D+08         STORAGE CHANGE =       -1.0348D+07
       --------------                             --------------
         LAND SURFACE =        1.2756D+08           LAND SURFACE =       -7233313.49
            SOIL ZONE =        7026769.12              SOIL ZONE =       -1408453.75
     UNSATURATED ZONE =       -4871537.56       UNSATURATED ZONE =        -155230.78
       SATURATED ZONE =       -4.5303D+07         SATURATED ZONE =          99143.22
                LAKES =        8.0224D+08                  LAKES =       -1650112.12

 OVERALL BUDGET ERROR =        4.9746D+07           BUDGET ERROR =           8548.86


  PERCENT DISCREPANCY =              1.03    PERCENT DISCREPANCY =              0.08



1
 SUMMARY VOLUMETRIC BUDGET FOR GSFLOW 
 DATE: 07 19 1983              CUMULATIVE TIME STEP:    1022
 MODFLOW STRESS PERIOD      1     CURRENT TIME STEP:    1022     ITERATIONS:      50

 -----------------------------------------------------------------------------------

   CUMULATIVE VOLUMES               L**3   RATES FOR THIS TIME STEP           L**3/T
   ------------------                      ------------------------

                                     IN                                         IN
                                     --                                         --
        PRECIPITATION =        4.8577D+09          PRECIPITATION =                  
           STREAMFLOW =                               STREAMFLOW =                  
     GW BOUNDARY FLOW =                         GW BOUNDARY FLOW =                  


                                    OUT                                        OUT
                                    ---                                        ---
   EVAPOTRANSPIRATION =        2.5867D+09     EVAPOTRANSPIRATION =        4230794.92
           STREAMFLOW =        1.3971D+09             STREAMFLOW =        2666794.75
     GW BOUNDARY FLOW =                         GW BOUNDARY FLOW =                  

   INFLOWS - OUTFLOWS =        8.7397D+08     INFLOWS - OUTFLOWS =       -6897589.67
             --------                                   --------

 TOTAL STORAGE CHANGE =        8.2439D+08         STORAGE CHANGE =       -6891081.58
       --------------                             --------------
         LAND SURFACE =        9.5289D+07           LAND SURFACE =       -3177942.08
            SOIL ZONE =         848477.92              SOIL ZONE =        -946015.73
     UNSATURATED ZONE =       -6033349.99       UNSATURATED ZONE =        -155338.33
       SATURATED ZONE =       -4.6727D+07         SATURATED ZONE =        -233767.94
                LAKES =        7.8102D+08                  LAKES =       -2378017.50

 OVERALL BUDGET ERROR =        4.9576D+07           BUDGET ERROR =          -6508.09


  PERCENT DISCREPANCY =              1.03    PERCENT DISCREPANCY =             -0.09



1
 SUMMARY VOLUMETRIC BUDGET FOR GSFLOW 
 DATE: 07 26 1983              CUMULATIVE TIME STEP:    1029
 MODFLOW STRESS PERIOD      1     CURRENT TIME STEP:    1029     ITERATIONS:      13

 -----------------------------------------------------------------------------------

   CUMULATIVE VOLUMES               L**3   RATES FOR THIS TIME STEP           L**3/T
   ------------------                      ------------------------

                                     IN                                         IN
                                     --                                         --
        PRECIPITATION =        4.8611D+09          PRECIPITATION =                  
           STREAMFLOW =                               STREAMFLOW =                  
     GW BOUNDARY FLOW =                         GW BOUNDARY FLOW =                  


                                    OUT                                        OUT
                                    ---                                        ---
   EVAPOTRANSPIRATION =        2.6177D+09     EVAPOTRANSPIRATION =        4283612.41
           STREAMFLOW =        1.4092D+09             STREAMFLOW =        1426390.50
     GW BOUNDARY FLOW =                         GW BOUNDARY FLOW =                  

   INFLOWS - OUTFLOWS =        8.3421D+08     INFLOWS - OUTFLOWS =       -5710002.91
             --------                                   --------

 TOTAL STORAGE CHANGE =        7.8446D+08         STORAGE CHANGE =       -5692261.19
       --------------                             --------------
         LAND SURFACE =        6.4949D+07           LAND SURFACE =       -2945042.89
            SOIL ZONE =       -4424911.99              SOIL ZONE =       -1014074.06
     UNSATURATED ZONE =       -7111791.40       UNSATURATED ZONE =        -148808.06
       SATURATED ZONE =       -4.7457D+07         SATURATED ZONE =        -318513.81
                LAKES =        7.7851D+08                  LAKES =       -1265822.38

 OVERALL BUDGET ERROR =        4.9750D+07           BUDGET ERROR =         -17741.72


  PERCENT DISCREPANCY =              1.03    PERCENT DISCREPANCY =             -0.31



1
 SUMMARY VOLUMETRIC BUDGET FOR GSFLOW 
 DATE: 08 02 1983              CUMULATIVE TIME STEP:    1036
 MODFLOW STRESS PERIOD      1     CURRENT TIME STEP:    1036     ITERATIONS:      22

 -----------------------------------------------------------------------------------

   CUMULATIVE VOLUMES               L**3   RATES FOR THIS TIME STEP           L**3/T
   ------------------                      ------------------------

                                     IN                                         IN
                                     --                                         --
        PRECIPITATION =        4.8611D+09          PRECIPITATION =                  
           STREAMFLOW =                               STREAMFLOW =                  
     GW BOUNDARY FLOW =                         GW BOUNDARY FLOW =                  


                                    OUT                                        OUT
                                    ---                                        ---
   EVAPOTRANSPIRATION =        2.6567D+09     EVAPOTRANSPIRATION =        5463864.23
           STREAMFLOW =        1.4191D+09             STREAMFLOW =        1416587.00
     GW BOUNDARY FLOW =                         GW BOUNDARY FLOW =                  

   INFLOWS - OUTFLOWS =        7.8530D+08     INFLOWS - OUTFLOWS =       -6880451.23
             --------                                   --------

 TOTAL STORAGE CHANGE =        7.3552D+08         STORAGE CHANGE =       -6877659.07
       --------------                             --------------
         LAND SURFACE =        4.0850D+07           LAND SURFACE =       -3005625.76
            SOIL ZONE =       -1.3584D+07              SOIL ZONE =       -1213928.11
     UNSATURATED ZONE =       -8372369.63       UNSATURATED ZONE =        -172544.10
       SATURATED ZONE =       -4.9020D+07         SATURATED ZONE =        -264270.34
                LAKES =        7.6565D+08                  LAKES =       -2221290.75

 OVERALL BUDGET ERROR =        4.9775D+07           BUDGET ERROR =          -2792.16


  PERCENT DISCREPANCY =              1.03    PERCENT DISCREPANCY =             -0.04



1
 SUMMARY VOLUMETRIC BUDGET FOR GSFLOW 
 DATE: 08 09 1983              CUMULATIVE TIME STEP:    1043
 MODFLOW STRESS PERIOD      1     CURRENT TIME STEP:    1043     ITERATIONS:      25

 -----------------------------------------------------------------------------------

   CUMULATIVE VOLUMES               L**3   RATES FOR THIS TIME STEP           L**3/T
   ------------------                      ------------------------

                                     IN                                         IN
                                     --                                         --
        PRECIPITATION =        4.8681D+09          PRECIPITATION =                  
           STREAMFLOW =                               STREAMFLOW =                  
     GW BOUNDARY FLOW =                         GW BOUNDARY FLOW =                  


                                    OUT                                        OUT
                                    ---                                        ---
   EVAPOTRANSPIRATION =        2.6907D+09     EVAPOTRANSPIRATION =        4858350.23
           STREAMFLOW =        1.4290D+09             STREAMFLOW =        1416626.75
     GW BOUNDARY FLOW =                         GW BOUNDARY FLOW =                  

   INFLOWS - OUTFLOWS =        7.4837D+08     INFLOWS - OUTFLOWS =       -6274976.98
             --------                                   --------

 TOTAL STORAGE CHANGE =        6.9845D+08         STORAGE CHANGE =       -6270435.00
       --------------                             --------------
         LAND SURFACE =        2.2553D+07           LAND SURFACE =       -1656523.15
            SOIL ZONE =       -1.8561D+07              SOIL ZONE =       -1444664.70
     UNSATURATED ZONE =       -9447710.09       UNSATURATED ZONE =        -158963.09
       SATURATED ZONE =       -5.0467D+07         SATURATED ZONE =        -381811.06
                LAKES =        7.5437D+08                  LAKES =       -2628473.00

 OVERALL BUDGET ERROR =        4.9924D+07           BUDGET ERROR =          -4541.97


  PERCENT DISCREPANCY =              1.03    PERCENT DISCREPANCY =             -0.07



1
 SUMMARY VOLUMETRIC BUDGET FOR GSFLOW 
 DATE: 08 16 1983              CUMULATIVE TIME STEP:    1050
 MODFLOW STRESS PERIOD      1     CURRENT TIME STEP:    1050     ITERATIONS:      13

 -----------------------------------------------------------------------------------

   CUMULATIVE VOLUMES               L**3   RATES FOR THIS TIME STEP           L**3/T
   ------------------                      ------------------------

                                     IN                                         IN
                                     --                                         --
        PRECIPITATION =        4.8821D+09          PRECIPITATION =        3491652.99
           STREAMFLOW =                               STREAMFLOW =                  
     GW BOUNDARY FLOW =                         GW BOUNDARY FLOW =                  


                                    OUT                                        OUT
                                    ---                                        ---
   EVAPOTRANSPIRATION =        2.7170D+09     EVAPOTRANSPIRATION =        2591376.32
           STREAMFLOW =        1.4390D+09             STREAMFLOW =        1434053.50
     GW BOUNDARY FLOW =                         GW BOUNDARY FLOW =                  

   INFLOWS - OUTFLOWS =        7.2605D+08     INFLOWS - OUTFLOWS =        -533776.84
             --------                                   --------

 TOTAL STORAGE CHANGE =        6.7604D+08         STORAGE CHANGE =        -582831.72
       --------------                             --------------
         LAND SURFACE =        1.2751D+07           LAND SURFACE =       -1544188.11
            SOIL ZONE =       -1.9245D+07              SOIL ZONE =         548666.41
     UNSATURATED ZONE =       -1.0314D+07       UNSATURATED ZONE =         -51129.00
       SATURATED ZONE =       -5.1910D+07         SATURATED ZONE =         -16980.23
                LAKES =        7.4476D+08                  LAKES =         480799.22

 OVERALL BUDGET ERROR =        5.0009D+07           BUDGET ERROR =          49054.88


  PERCENT DISCREPANCY =              1.03    PERCENT DISCREPANCY =              1.21



1
 SUMMARY VOLUMETRIC BUDGET FOR GSFLOW 
 DATE: 08 23 1983              CUMULATIVE TIME STEP:    1057
 MODFLOW STRESS PERIOD      1     CURRENT TIME STEP:    1057     ITERATIONS:      16

 -----------------------------------------------------------------------------------

   CUMULATIVE VOLUMES               L**3   RATES FOR THIS TIME STEP           L**3/T
   ------------------                      ------------------------

                                     IN                                         IN
                                     --                                         --
        PRECIPITATION =        4.8891D+09          PRECIPITATION =                  
           STREAMFLOW =                               STREAMFLOW =                  
     GW BOUNDARY FLOW =                         GW BOUNDARY FLOW =                  


                                    OUT                                        OUT
                                    ---                                        ---
   EVAPOTRANSPIRATION =        2.7401D+09     EVAPOTRANSPIRATION =        2532255.92
           STREAMFLOW =        1.4490D+09             STREAMFLOW =        1419120.25
     GW BOUNDARY FLOW =                         GW BOUNDARY FLOW =                  

   INFLOWS - OUTFLOWS =        6.9995D+08     INFLOWS - OUTFLOWS =       -3951376.17
             --------                                   --------

 TOTAL STORAGE CHANGE =        6.4959D+08         STORAGE CHANGE =       -3950157.10
       --------------                             --------------
         LAND SURFACE =        8878619.82           LAND SURFACE =        -288574.10
            SOIL ZONE =       -2.4118D+07              SOIL ZONE =        -920000.26
     UNSATURATED ZONE =       -1.1057D+07       UNSATURATED ZONE =        -152272.34
       SATURATED ZONE =       -5.3976D+07         SATURATED ZONE =        -258766.41
                LAKES =        7.2986D+08                  LAKES =       -2330544.00

 OVERALL BUDGET ERROR =        5.0356D+07           BUDGET ERROR =          -1219.07


  PERCENT DISCREPANCY =              1.04    PERCENT DISCREPANCY =             -0.03



1
 SUMMARY VOLUMETRIC BUDGET FOR GSFLOW 
 DATE: 08 30 1983              CUMULATIVE TIME STEP:    1064
 MODFLOW STRESS PERIOD      1     CURRENT TIME STEP:    1064     ITERATIONS:      13

 -----------------------------------------------------------------------------------

   CUMULATIVE VOLUMES               L**3   RATES FOR THIS TIME STEP           L**3/T
   ------------------                      ------------------------

                                     IN                                         IN
                                     --                                         --
        PRECIPITATION =        4.8995D+09          PRECIPITATION =                  
           STREAMFLOW =                               STREAMFLOW =                  
     GW BOUNDARY FLOW =                         GW BOUNDARY FLOW =                  


                                    OUT                                        OUT
                                    ---                                        ---
   EVAPOTRANSPIRATION =        2.7623D+09     EVAPOTRANSPIRATION =        4425727.40
           STREAMFLOW =        1.4584D+09             STREAMFLOW =        1360436.88
     GW BOUNDARY FLOW =                         GW BOUNDARY FLOW =                  

   INFLOWS - OUTFLOWS =        6.7881D+08     INFLOWS - OUTFLOWS =       -5786164.27
             --------                                   --------

 TOTAL STORAGE CHANGE =        6.2823D+08         STORAGE CHANGE =       -5708591.07
       --------------                             --------------
         LAND SURFACE =        5787084.07           LAND SURFACE =        -656006.25
            SOIL ZONE =       -2.6742D+07              SOIL ZONE =       -1914197.95
     UNSATURATED ZONE =       -1.1782D+07       UNSATURATED ZONE =         -66238.92
       SATURATED ZONE =       -5.5354D+07         SATURATED ZONE =        -174110.45
                LAKES =        7.1632D+08                  LAKES =       -2898037.50

 OVERALL BUDGET ERROR =        5.0579D+07           BUDGET ERROR =         -77573.20


  PERCENT DISCREPANCY =              1.04    PERCENT DISCREPANCY =             -1.35



