1
 SUMMARY VOLUMETRIC BUDGET FOR GSFLOW 
 DATE: 12 08 1983              CUMULATIVE TIME STEP:    1164
 MODFLOW STRESS PERIOD      1     CURRENT TIME STEP:    1164     ITERATIONS:       2

 -----------------------------------------------------------------------------------

   CUMULATIVE VOLUMES               L**3   RATES FOR THIS TIME STEP           L**3/T
   ------------------                      ------------------------

                                     IN                                         IN
                                     --                                         --
        PRECIPITATION =        7.3558D+07          PRECIPITATION =        9594484.95
           STREAMFLOW =                               STREAMFLOW =                  
     GW BOUNDARY FLOW =                         GW BOUNDARY FLOW =                  


                                    OUT                                        OUT
                                    ---                                        ---
   EVAPOTRANSPIRATION =        3229758.72     EVAPOTRANSPIRATION =        1082283.16
           STREAMFLOW =        3.5846D+07             STREAMFLOW =        5236643.00
     GW BOUNDARY FLOW =                         GW BOUNDARY FLOW =                  

   INFLOWS - OUTFLOWS =        3.4482D+07     INFLOWS - OUTFLOWS =        3275558.79
             --------                                   --------

 TOTAL STORAGE CHANGE =        3.3833D+07         STORAGE CHANGE =        3163099.14
       --------------                             --------------
         LAND SURFACE =        4.9632D+07           LAND SURFACE =        5571343.62
            SOIL ZONE =        1091367.91              SOIL ZONE =         450665.53
     UNSATURATED ZONE =         375299.52       UNSATURATED ZONE =          60383.93
       SATURATED ZONE =       -1018623.23         SATURATED ZONE =        -123214.94
                LAKES =       -1.6248D+07                  LAKES =       -2796079.00

 OVERALL BUDGET ERROR =         649043.86           BUDGET ERROR =         112459.65


  PERCENT DISCREPANCY =              0.89    PERCENT DISCREPANCY =              1.18



1
 SUMMARY VOLUMETRIC BUDGET FOR GSFLOW 
 DATE: 12 15 1983              CUMULATIVE TIME STEP:    1171
 MODFLOW STRESS PERIOD      1     CURRENT TIME STEP:    1171     ITERATIONS:       5

 -----------------------------------------------------------------------------------

   CUMULATIVE VOLUMES               L**3   RATES FOR THIS TIME STEP           L**3/T
   ------------------                      ------------------------

                                     IN                                         IN
                                     --                                         --
        PRECIPITATION =        1.5351D+08          PRECIPITATION =                  
           STREAMFLOW =                               STREAMFLOW =                  
     GW BOUNDARY FLOW =                         GW BOUNDARY FLOW =                  


                                    OUT                                        OUT
                                    ---                                        ---
   EVAPOTRANSPIRATION =        8285122.21     EVAPOTRANSPIRATION =        1505955.13
           STREAMFLOW =        7.2942D+07             STREAMFLOW =        5407177.50
     GW BOUNDARY FLOW =                         GW BOUNDARY FLOW =                  

   INFLOWS - OUTFLOWS =        7.2284D+07     INFLOWS - OUTFLOWS =       -6913132.63
             --------                                   --------

 TOTAL STORAGE CHANGE =        7.1122D+07         STORAGE CHANGE =       -6938024.46
       --------------                             --------------
         LAND SURFACE =        1.0230D+08           LAND SURFACE =        -840996.60
            SOIL ZONE =        1667712.89              SOIL ZONE =        -132096.31
     UNSATURATED ZONE =         852910.69       UNSATURATED ZONE =           1421.91
       SATURATED ZONE =       -1950448.79         SATURATED ZONE =        -192821.45
                LAKES =       -3.1747D+07                  LAKES =       -5773532.00

 OVERALL BUDGET ERROR =        1162793.90           BUDGET ERROR =          24891.82


  PERCENT DISCREPANCY =              0.76    PERCENT DISCREPANCY =              0.36



1
 SUMMARY VOLUMETRIC BUDGET FOR GSFLOW 
 DATE: 12 22 1983              CUMULATIVE TIME STEP:    1178
 MODFLOW STRESS PERIOD      1     CURRENT TIME STEP:    1178     ITERATIONS:      22

 -----------------------------------------------------------------------------------

   CUMULATIVE VOLUMES               L**3   RATES FOR THIS TIME STEP           L**3/T
   ------------------                      ------------------------

                                     IN                                         IN
                                     --                                         --
        PRECIPITATION =        1.7590D+08          PRECIPITATION =        6396323.79
           STREAMFLOW =                               STREAMFLOW =                  
     GW BOUNDARY FLOW =                         GW BOUNDARY FLOW =                  


                                    OUT                                        OUT
                                    ---                                        ---
   EVAPOTRANSPIRATION =        1.3666D+07     EVAPOTRANSPIRATION =          70337.81
           STREAMFLOW =        1.1182D+08             STREAMFLOW =        5480523.50
     GW BOUNDARY FLOW =                         GW BOUNDARY FLOW =                  

   INFLOWS - OUTFLOWS =        5.0410D+07     INFLOWS - OUTFLOWS =         845462.48
             --------                                   --------

 TOTAL STORAGE CHANGE =        4.8847D+07         STORAGE CHANGE =         797783.69
       --------------                             --------------
         LAND SURFACE =        1.1189D+08           LAND SURFACE =        4731717.30
            SOIL ZONE =        2392837.68              SOIL ZONE =        -136927.31
     UNSATURATED ZONE =        1305978.91       UNSATURATED ZONE =          25807.61
       SATURATED ZONE =       -2934681.54         SATURATED ZONE =        -150682.16
                LAKES =       -6.3806D+07                  LAKES =       -3672131.75

 OVERALL BUDGET ERROR =        1563220.58           BUDGET ERROR =          47678.79


  PERCENT DISCREPANCY =              0.89    PERCENT DISCREPANCY =              0.75



1
 SUMMARY VOLUMETRIC BUDGET FOR GSFLOW 
 DATE: 12 29 1983              CUMULATIVE TIME STEP:    1185
 MODFLOW STRESS PERIOD      1     CURRENT TIME STEP:    1185     ITERATIONS:       3

 -----------------------------------------------------------------------------------

   CUMULATIVE VOLUMES               L**3   RATES FOR THIS TIME STEP           L**3/T
   ------------------                      ------------------------

                                     IN                                         IN
                                     --                                         --
        PRECIPITATION =        3.5500D+08          PRECIPITATION =        6396323.79
           STREAMFLOW =                               STREAMFLOW =                  
     GW BOUNDARY FLOW =                         GW BOUNDARY FLOW =                  


                                    OUT                                        OUT
                                    ---                                        ---
   EVAPOTRANSPIRATION =        1.6181D+07     EVAPOTRANSPIRATION =         287717.19
           STREAMFLOW =        1.5117D+08             STREAMFLOW =        5676565.00
     GW BOUNDARY FLOW =                         GW BOUNDARY FLOW =                  

   INFLOWS - OUTFLOWS =        1.8764D+08     INFLOWS - OUTFLOWS =         432041.60
             --------                                   --------

 TOTAL STORAGE CHANGE =        1.8513D+08         STORAGE CHANGE =         374335.76
       --------------                             --------------
         LAND SURFACE =        2.3899D+08           LAND SURFACE =        4532944.89
            SOIL ZONE =        3115407.32              SOIL ZONE =        -129073.33
     UNSATURATED ZONE =        1731994.36       UNSATURATED ZONE =          47469.02
       SATURATED ZONE =       -3706661.98         SATURATED ZONE =        -179827.81
                LAKES =       -5.5002D+07                  LAKES =       -3897177.00

 OVERALL BUDGET ERROR =        2513595.65           BUDGET ERROR =          57705.84


  PERCENT DISCREPANCY =              0.71    PERCENT DISCREPANCY =              0.91



1
 SUMMARY VOLUMETRIC BUDGET FOR GSFLOW 
 DATE: 01 05 1984              CUMULATIVE TIME STEP:    1192
 MODFLOW STRESS PERIOD      1     CURRENT TIME STEP:    1192     ITERATIONS:       3

 -----------------------------------------------------------------------------------

   CUMULATIVE VOLUMES               L**3   RATES FOR THIS TIME STEP           L**3/T
   ------------------                      ------------------------

                                     IN                                         IN
                                     --                                         --
        PRECIPITATION =        3.7719D+08          PRECIPITATION =                  
           STREAMFLOW =                               STREAMFLOW =                  
     GW BOUNDARY FLOW =                         GW BOUNDARY FLOW =                  


                                    OUT                                        OUT
                                    ---                                        ---
   EVAPOTRANSPIRATION =        2.5864D+07     EVAPOTRANSPIRATION =        2023966.75
           STREAMFLOW =        1.9030D+08             STREAMFLOW =        5407227.00
     GW BOUNDARY FLOW =                         GW BOUNDARY FLOW =                  

   INFLOWS - OUTFLOWS =        1.6102D+08     INFLOWS - OUTFLOWS =       -7431193.75
             --------                                   --------

 TOTAL STORAGE CHANGE =        1.5804D+08         STORAGE CHANGE =       -7465802.28
       --------------                             --------------
         LAND SURFACE =        2.4267D+08           LAND SURFACE =       -1664933.55
            SOIL ZONE =        4114474.11              SOIL ZONE =         117913.90
     UNSATURATED ZONE =        2097878.69       UNSATURATED ZONE =          -7992.37
       SATURATED ZONE =       -4596095.15         SATURATED ZONE =        -163196.27
                LAKES =       -8.6248D+07                  LAKES =       -5747594.00

 OVERALL BUDGET ERROR =        2977577.14           BUDGET ERROR =          34608.53


  PERCENT DISCREPANCY =              0.79    PERCENT DISCREPANCY =              0.46



1
 SUMMARY VOLUMETRIC BUDGET FOR GSFLOW 
 DATE: 01 12 1984              CUMULATIVE TIME STEP:    1199
 MODFLOW STRESS PERIOD      1     CURRENT TIME STEP:    1199     ITERATIONS:       4

 -----------------------------------------------------------------------------------

   CUMULATIVE VOLUMES               L**3   RATES FOR THIS TIME STEP           L**3/T
   ------------------                      ------------------------

                                     IN                                         IN
                                     --                                         --
        PRECIPITATION =        3.7719D+08          PRECIPITATION =                  
           STREAMFLOW =                               STREAMFLOW =                  
     GW BOUNDARY FLOW =                         GW BOUNDARY FLOW =                  


                                    OUT                                        OUT
                                    ---                                        ---
   EVAPOTRANSPIRATION =        3.6868D+07     EVAPOTRANSPIRATION =         809118.19
           STREAMFLOW =        2.2725D+08             STREAMFLOW =        5186900.00
     GW BOUNDARY FLOW =                         GW BOUNDARY FLOW =                  

   INFLOWS - OUTFLOWS =        1.1307D+08     INFLOWS - OUTFLOWS =       -5996018.19
             --------                                   --------

 TOTAL STORAGE CHANGE =        1.0994D+08         STORAGE CHANGE =       -6015893.78
       --------------                             --------------
         LAND SURFACE =        2.3291D+08           LAND SURFACE =        -439678.65
            SOIL ZONE =        4685269.54              SOIL ZONE =        -165848.49
     UNSATURATED ZONE =        2082174.44       UNSATURATED ZONE =          18010.02
       SATURATED ZONE =       -5435469.36         SATURATED ZONE =        -163319.66
                LAKES =       -1.2430D+08                  LAKES =       -5265057.00

 OVERALL BUDGET ERROR =        3127864.88           BUDGET ERROR =          19875.60


  PERCENT DISCREPANCY =              0.83    PERCENT DISCREPANCY =              0.33



1
 SUMMARY VOLUMETRIC BUDGET FOR GSFLOW 
 DATE: 01 19 1984              CUMULATIVE TIME STEP:    1206
 MODFLOW STRESS PERIOD      1     CURRENT TIME STEP:    1206     ITERATIONS:      29

 -----------------------------------------------------------------------------------

   CUMULATIVE VOLUMES               L**3   RATES FOR THIS TIME STEP           L**3/T
   ------------------                      ------------------------

                                     IN                                         IN
                                     --                                         --
        PRECIPITATION =        4.0419D+08          PRECIPITATION =                  
           STREAMFLOW =                               STREAMFLOW =                  
     GW BOUNDARY FLOW =                         GW BOUNDARY FLOW =                  


                                    OUT                                        OUT
                                    ---                                        ---
   EVAPOTRANSPIRATION =        3.9758D+07     EVAPOTRANSPIRATION =         854948.28
           STREAMFLOW =        2.6253D+08             STREAMFLOW =        4966642.50
     GW BOUNDARY FLOW =                         GW BOUNDARY FLOW =                  

   INFLOWS - OUTFLOWS =        1.0191D+08     INFLOWS - OUTFLOWS =       -5821590.78
             --------                                   --------

 TOTAL STORAGE CHANGE =        9.8557D+07         STORAGE CHANGE =       -5835945.25
       --------------                             --------------
         LAND SURFACE =        2.5114D+08           LAND SURFACE =        -494777.65
            SOIL ZONE =        3939212.82              SOIL ZONE =         -81282.08
     UNSATURATED ZONE =        2102143.22       UNSATURATED ZONE =         -26071.61
       SATURATED ZONE =       -6497280.52         SATURATED ZONE =        -156428.41
                LAKES =       -1.5213D+08                  LAKES =       -5077385.50

 OVERALL BUDGET ERROR =        3349412.47           BUDGET ERROR =          14354.48


  PERCENT DISCREPANCY =              0.83    PERCENT DISCREPANCY =              0.25



1
 SUMMARY VOLUMETRIC BUDGET FOR GSFLOW 
 DATE: 01 26 1984              CUMULATIVE TIME STEP:    1213
 MODFLOW STRESS PERIOD      1     CURRENT TIME STEP:    1213     ITERATIONS:       3

 -----------------------------------------------------------------------------------

   CUMULATIVE VOLUMES               L**3   RATES FOR THIS TIME STEP           L**3/T
   ------------------                      ------------------------

                                     IN                                         IN
                                     --                                         --
        PRECIPITATION =        4.0719D+08          PRECIPITATION =                  
           STREAMFLOW =                               STREAMFLOW =                  
     GW BOUNDARY FLOW =                         GW BOUNDARY FLOW =                  


                                    OUT                                        OUT
                                    ---                                        ---
   EVAPOTRANSPIRATION =        4.8017D+07     EVAPOTRANSPIRATION =        1853759.23
           STREAMFLOW =        2.9715D+08             STREAMFLOW =        4893219.50
     GW BOUNDARY FLOW =                         GW BOUNDARY FLOW =                  

   INFLOWS - OUTFLOWS =        6.2029D+07     INFLOWS - OUTFLOWS =       -6746978.73
             --------                                   --------

 TOTAL STORAGE CHANGE =        5.8602D+07         STORAGE CHANGE =       -6748299.62
       --------------                             --------------
         LAND SURFACE =        2.4872D+08           LAND SURFACE =       -1112470.77
            SOIL ZONE =        3514113.79              SOIL ZONE =         -47594.86
     UNSATURATED ZONE =        1751982.13       UNSATURATED ZONE =         -78305.36
       SATURATED ZONE =       -7595914.21         SATURATED ZONE =        -164476.62
                LAKES =       -1.8779D+08                  LAKES =       -5345452.00

 OVERALL BUDGET ERROR =        3426780.64           BUDGET ERROR =           1320.89


  PERCENT DISCREPANCY =              0.85    PERCENT DISCREPANCY =              0.02



