1
 SUMMARY VOLUMETRIC BUDGET FOR GSFLOW 
 DATE: 10 06 1983              CUMULATIVE TIME STEP:    1101
 MODFLOW STRESS PERIOD      2     CURRENT TIME STEP:    1100     ITERATIONS:      10

 -----------------------------------------------------------------------------------

   CUMULATIVE VOLUMES               L**3   RATES FOR THIS TIME STEP           L**3/T
   ------------------                      ------------------------

                                     IN                                         IN
                                     --                                         --
        PRECIPITATION =         123478.85          PRECIPITATION =                  
           STREAMFLOW =                               STREAMFLOW =                  
     GW BOUNDARY FLOW =                         GW BOUNDARY FLOW =                  
                WELLS =             24.01                  WELLS =              0.32


                                    OUT                                        OUT
                                    ---                                        ---
   EVAPOTRANSPIRATION =         400378.94     EVAPOTRANSPIRATION =          90279.46
           STREAMFLOW =          37964.75             STREAMFLOW =           4757.49
     GW BOUNDARY FLOW =           5020.34       GW BOUNDARY FLOW =            717.20
                WELLS =           9453.19                  WELLS =           1693.68

   INFLOWS - OUTFLOWS =        -329314.36     INFLOWS - OUTFLOWS =         -97447.51
             --------                                   --------

 TOTAL STORAGE CHANGE =        -329296.59         STORAGE CHANGE =         -97444.98
       --------------                             --------------
         LAND SURFACE =         -43997.54           LAND SURFACE =           -942.88
            SOIL ZONE =        -173869.10              SOIL ZONE =         -80286.35
     UNSATURATED ZONE =         -44236.96       UNSATURATED ZONE =          -6223.82
       SATURATED ZONE =         -67192.99         SATURATED ZONE =          -9991.92

 OVERALL BUDGET ERROR =            -17.77           BUDGET ERROR =             -2.53


  PERCENT DISCREPANCY =             -0.00    PERCENT DISCREPANCY =             -0.00



