1
 SUMMARY VOLUMETRIC BUDGET FOR GSFLOW 
 DATE: 10 27 1983              CUMULATIVE TIME STEP:    1122
 MODFLOW STRESS PERIOD      2     CURRENT TIME STEP:    1121     ITERATIONS:       9

 -----------------------------------------------------------------------------------

   CUMULATIVE VOLUMES               L**3   RATES FOR THIS TIME STEP           L**3/T
   ------------------                      ------------------------

                                     IN                                         IN
                                     --                                         --
        PRECIPITATION =         288091.23          PRECIPITATION =                  
           STREAMFLOW =                               STREAMFLOW =                  
     GW BOUNDARY FLOW =                         GW BOUNDARY FLOW =                  
                WELLS =            162.13                  WELLS =             22.85


                                    OUT                                        OUT
                                    ---                                        ---
   EVAPOTRANSPIRATION =         252836.26     EVAPOTRANSPIRATION =          32937.15
           STREAMFLOW =          29406.14             STREAMFLOW =           3960.53
     GW BOUNDARY FLOW =           5020.88       GW BOUNDARY FLOW =            717.29
                WELLS =           6127.31                  WELLS =            868.83

   INFLOWS - OUTFLOWS =          -5137.23     INFLOWS - OUTFLOWS =         -38460.96
             --------                                   --------

 TOTAL STORAGE CHANGE =          -5118.45         STORAGE CHANGE =         -38458.42
       --------------                             --------------
         LAND SURFACE =          -2922.29           LAND SURFACE =             -3.98
            SOIL ZONE =         103947.03              SOIL ZONE =         -23190.24
     UNSATURATED ZONE =         -40766.44       UNSATURATED ZONE =          -5705.31
       SATURATED ZONE =         -65376.74         SATURATED ZONE =          -9558.89

 OVERALL BUDGET ERROR =            -18.78           BUDGET ERROR =             -2.54


  PERCENT DISCREPANCY =             -0.01    PERCENT DISCREPANCY =             -0.01



