1
 SUMMARY VOLUMETRIC BUDGET FOR GSFLOW 
 DATE: 12 08 1983              CUMULATIVE TIME STEP:    1164
 MODFLOW STRESS PERIOD      2     CURRENT TIME STEP:    1163     ITERATIONS:       9

 -----------------------------------------------------------------------------------

   CUMULATIVE VOLUMES               L**3   RATES FOR THIS TIME STEP           L**3/T
   ------------------                      ------------------------

                                     IN                                         IN
                                     --                                         --
        PRECIPITATION =        2208274.44          PRECIPITATION =         240449.16
           STREAMFLOW =                               STREAMFLOW =                  
     GW BOUNDARY FLOW =                         GW BOUNDARY FLOW =                  
                WELLS =            114.52                  WELLS =             24.88


                                    OUT                                        OUT
                                    ---                                        ---
   EVAPOTRANSPIRATION =          48947.25     EVAPOTRANSPIRATION =          12193.05
           STREAMFLOW =         103007.91             STREAMFLOW =          14064.17
     GW BOUNDARY FLOW =           5036.54       GW BOUNDARY FLOW =            719.34
                WELLS =           5004.75                  WELLS =            924.96

   INFLOWS - OUTFLOWS =        2046392.51     INFLOWS - OUTFLOWS =         212572.52
             --------                                   --------

 TOTAL STORAGE CHANGE =        2046394.41         STORAGE CHANGE =         212572.83
       --------------                             --------------
         LAND SURFACE =        2159327.21           LAND SURFACE =         228256.11
            SOIL ZONE =         -34407.12              SOIL ZONE =          -3595.50
     UNSATURATED ZONE =         -15256.00       UNSATURATED ZONE =          -2784.03
       SATURATED ZONE =         -63269.67         SATURATED ZONE =          -9303.76

 OVERALL BUDGET ERROR =             -1.90           BUDGET ERROR =             -0.30


  PERCENT DISCREPANCY =             -0.00    PERCENT DISCREPANCY =             -0.00



1
 SUMMARY VOLUMETRIC BUDGET FOR GSFLOW 
 DATE: 12 15 1983              CUMULATIVE TIME STEP:    1171
 MODFLOW STRESS PERIOD      2     CURRENT TIME STEP:    1170     ITERATIONS:       8

 -----------------------------------------------------------------------------------

   CUMULATIVE VOLUMES               L**3   RATES FOR THIS TIME STEP           L**3/T
   ------------------                      ------------------------

                                     IN                                         IN
                                     --                                         --
        PRECIPITATION =        4659738.95          PRECIPITATION =                  
           STREAMFLOW =                               STREAMFLOW =                  
     GW BOUNDARY FLOW =                         GW BOUNDARY FLOW =                  
                WELLS =            287.52                  WELLS =             24.73


                                    OUT                                        OUT
                                    ---                                        ---
   EVAPOTRANSPIRATION =         163952.23     EVAPOTRANSPIRATION =          32312.36
           STREAMFLOW =         197850.63             STREAMFLOW =          13255.21
     GW BOUNDARY FLOW =          10070.30       GW BOUNDARY FLOW =            718.93
                WELLS =          13945.07                  WELLS =           1317.86

   INFLOWS - OUTFLOWS =        4274208.23     INFLOWS - OUTFLOWS =         -47579.64
             --------                                   --------

 TOTAL STORAGE CHANGE =        4274215.06         STORAGE CHANGE =         -47578.85
       --------------                             --------------
         LAND SURFACE =        4495776.32           LAND SURFACE =         -32322.78
            SOIL ZONE =         -51366.11              SOIL ZONE =          -1694.63
     UNSATURATED ZONE =         -38708.31       UNSATURATED ZONE =          -3727.44
       SATURATED ZONE =        -131486.85         SATURATED ZONE =          -9834.00

 OVERALL BUDGET ERROR =             -6.83           BUDGET ERROR =             -0.79


  PERCENT DISCREPANCY =             -0.00    PERCENT DISCREPANCY =             -0.00



1
 SUMMARY VOLUMETRIC BUDGET FOR GSFLOW 
 DATE: 12 22 1983              CUMULATIVE TIME STEP:    1178
 MODFLOW STRESS PERIOD      2     CURRENT TIME STEP:    1177     ITERATIONS:       8

 -----------------------------------------------------------------------------------

   CUMULATIVE VOLUMES               L**3   RATES FOR THIS TIME STEP           L**3/T
   ------------------                      ------------------------

                                     IN                                         IN
                                     --                                         --
        PRECIPITATION =        5428172.53          PRECIPITATION =         194584.49
           STREAMFLOW =                               STREAMFLOW =                  
     GW BOUNDARY FLOW =                         GW BOUNDARY FLOW =                  
                WELLS =            460.08                  WELLS =             24.59


                                    OUT                                        OUT
                                    ---                                        ---
   EVAPOTRANSPIRATION =         247700.10     EVAPOTRANSPIRATION =           1306.42
           STREAMFLOW =         297689.02             STREAMFLOW =          13511.50
     GW BOUNDARY FLOW =          15102.83       GW BOUNDARY FLOW =            718.84
                WELLS =          23024.74                  WELLS =           1282.98

   INFLOWS - OUTFLOWS =        4845115.92     INFLOWS - OUTFLOWS =         177789.35
             --------                                   --------

 TOTAL STORAGE CHANGE =        4845132.10         STORAGE CHANGE =         177790.92
       --------------                             --------------
         LAND SURFACE =        5158805.84           LAND SURFACE =         193278.08
            SOIL ZONE =         -49081.68              SOIL ZONE =          -1841.40
     UNSATURATED ZONE =         -64533.52       UNSATURATED ZONE =          -3812.86
       SATURATED ZONE =        -200058.55         SATURATED ZONE =          -9832.91

 OVERALL BUDGET ERROR =            -16.18           BUDGET ERROR =             -1.57


  PERCENT DISCREPANCY =             -0.00    PERCENT DISCREPANCY =             -0.00



1
 SUMMARY VOLUMETRIC BUDGET FOR GSFLOW 
 DATE: 12 29 1983              CUMULATIVE TIME STEP:    1185
 MODFLOW STRESS PERIOD      2     CURRENT TIME STEP:    1184     ITERATIONS:       8

 -----------------------------------------------------------------------------------

   CUMULATIVE VOLUMES               L**3   RATES FOR THIS TIME STEP           L**3/T
   ------------------                      ------------------------

                                     IN                                         IN
                                     --                                         --
        PRECIPITATION =        9285111.36          PRECIPITATION =         222494.69
           STREAMFLOW =                               STREAMFLOW =                  
     GW BOUNDARY FLOW =                         GW BOUNDARY FLOW =                  
                WELLS =            638.02                  WELLS =             25.80


                                    OUT                                        OUT
                                    ---                                        ---
   EVAPOTRANSPIRATION =         314160.55     EVAPOTRANSPIRATION =          13625.69
           STREAMFLOW =         389681.76             STREAMFLOW =          12958.23
     GW BOUNDARY FLOW =          20133.49       GW BOUNDARY FLOW =            718.54
                WELLS =          30040.81                  WELLS =            887.77

   INFLOWS - OUTFLOWS =        8531732.78     INFLOWS - OUTFLOWS =         194330.25
             --------                                   --------

 TOTAL STORAGE CHANGE =        8531759.45         STORAGE CHANGE =         194331.76
       --------------                             --------------
         LAND SURFACE =        8949284.21           LAND SURFACE =         208869.00
            SOIL ZONE =         -56922.92              SOIL ZONE =           -796.72
     UNSATURATED ZONE =         -92822.54       UNSATURATED ZONE =          -4110.82
       SATURATED ZONE =        -267779.29         SATURATED ZONE =          -9629.70

 OVERALL BUDGET ERROR =            -26.68           BUDGET ERROR =             -1.52


  PERCENT DISCREPANCY =             -0.00    PERCENT DISCREPANCY =             -0.00



1
 SUMMARY VOLUMETRIC BUDGET FOR GSFLOW 
 DATE: 01 05 1984              CUMULATIVE TIME STEP:    1192
 MODFLOW STRESS PERIOD      2     CURRENT TIME STEP:    1191     ITERATIONS:       8

 -----------------------------------------------------------------------------------

   CUMULATIVE VOLUMES               L**3   RATES FOR THIS TIME STEP           L**3/T
   ------------------                      ------------------------

                                     IN                                         IN
                                     --                                         --
        PRECIPITATION =        9947976.66          PRECIPITATION =                  
           STREAMFLOW =                               STREAMFLOW =                  
     GW BOUNDARY FLOW =                         GW BOUNDARY FLOW =                  
                WELLS =            814.87                  WELLS =             24.87


                                    OUT                                        OUT
                                    ---                                        ---
   EVAPOTRANSPIRATION =         519533.48     EVAPOTRANSPIRATION =          42373.51
           STREAMFLOW =         515435.34             STREAMFLOW =          26018.73
     GW BOUNDARY FLOW =          25165.74       GW BOUNDARY FLOW =            719.49
                WELLS =          36188.67                  WELLS =            871.74

   INFLOWS - OUTFLOWS =        8852468.31     INFLOWS - OUTFLOWS =         -69958.61
             --------                                   --------

 TOTAL STORAGE CHANGE =        8852504.88         STORAGE CHANGE =         -69957.31
       --------------                             --------------
         LAND SURFACE =        9237432.68           LAND SURFACE =        -111259.33
            SOIL ZONE =          56110.96              SOIL ZONE =          49222.78
     UNSATURATED ZONE =        -108159.21       UNSATURATED ZONE =            735.51
       SATURATED ZONE =        -332879.56         SATURATED ZONE =          -8656.26

 OVERALL BUDGET ERROR =            -36.57           BUDGET ERROR =             -1.30


  PERCENT DISCREPANCY =             -0.00    PERCENT DISCREPANCY =             -0.00



1
 SUMMARY VOLUMETRIC BUDGET FOR GSFLOW 
 DATE: 01 12 1984              CUMULATIVE TIME STEP:    1199
 MODFLOW STRESS PERIOD      2     CURRENT TIME STEP:    1198     ITERATIONS:       9

 -----------------------------------------------------------------------------------

   CUMULATIVE VOLUMES               L**3   RATES FOR THIS TIME STEP           L**3/T
   ------------------                      ------------------------

                                     IN                                         IN
                                     --                                         --
        PRECIPITATION =        9947976.66          PRECIPITATION =                  
           STREAMFLOW =                               STREAMFLOW =                  
     GW BOUNDARY FLOW =                         GW BOUNDARY FLOW =                  
                WELLS =           1016.51                  WELLS =             29.24


                                    OUT                                        OUT
                                    ---                                        ---
   EVAPOTRANSPIRATION =         725377.70     EVAPOTRANSPIRATION =          12339.52
           STREAMFLOW =         772992.91             STREAMFLOW =          29221.60
     GW BOUNDARY FLOW =          30212.99       GW BOUNDARY FLOW =            721.02
                WELLS =          40100.21                  WELLS =            505.65

   INFLOWS - OUTFLOWS =        8380309.36     INFLOWS - OUTFLOWS =         -42758.54
             --------                                   --------

 TOTAL STORAGE CHANGE =        8380354.88         STORAGE CHANGE =         -42757.76
       --------------                             --------------
         LAND SURFACE =        8657727.47           LAND SURFACE =         -12339.52
            SOIL ZONE =         179210.74              SOIL ZONE =         -27469.54
     UNSATURATED ZONE =         -66056.24       UNSATURATED ZONE =           5822.80
       SATURATED ZONE =        -390527.10         SATURATED ZONE =          -8771.50

 OVERALL BUDGET ERROR =            -45.52           BUDGET ERROR =             -0.78


  PERCENT DISCREPANCY =             -0.00    PERCENT DISCREPANCY =             -0.00



1
 SUMMARY VOLUMETRIC BUDGET FOR GSFLOW 
 DATE: 01 19 1984              CUMULATIVE TIME STEP:    1206
 MODFLOW STRESS PERIOD      2     CURRENT TIME STEP:    1205     ITERATIONS:       8

 -----------------------------------------------------------------------------------

   CUMULATIVE VOLUMES               L**3   RATES FOR THIS TIME STEP           L**3/T
   ------------------                      ------------------------

                                     IN                                         IN
                                     --                                         --
        PRECIPITATION =        1.0194D+07          PRECIPITATION =                  
           STREAMFLOW =                               STREAMFLOW =                  
     GW BOUNDARY FLOW =                         GW BOUNDARY FLOW =                  
                WELLS =           1215.19                  WELLS =             27.71


                                    OUT                                        OUT
                                    ---                                        ---
   EVAPOTRANSPIRATION =         761264.57     EVAPOTRANSPIRATION =          13198.52
           STREAMFLOW =         925384.44             STREAMFLOW =          18234.75
     GW BOUNDARY FLOW =          35252.32       GW BOUNDARY FLOW =            719.23
                WELLS =          43622.97                  WELLS =            501.50

   INFLOWS - OUTFLOWS =        8430175.33     INFLOWS - OUTFLOWS =         -32626.29
             --------                                   --------

 TOTAL STORAGE CHANGE =        8430221.46         STORAGE CHANGE =         -32626.60
       --------------                             --------------
         LAND SURFACE =        8868348.39           LAND SURFACE =         -13198.52
            SOIL ZONE =          57673.56              SOIL ZONE =         -12068.97
     UNSATURATED ZONE =         -43414.72       UNSATURATED ZONE =           1495.69
       SATURATED ZONE =        -452385.76         SATURATED ZONE =          -8854.81

 OVERALL BUDGET ERROR =            -46.13           BUDGET ERROR =              0.31


  PERCENT DISCREPANCY =             -0.00    PERCENT DISCREPANCY =              0.00



1
 SUMMARY VOLUMETRIC BUDGET FOR GSFLOW 
 DATE: 01 26 1984              CUMULATIVE TIME STEP:    1213
 MODFLOW STRESS PERIOD      2     CURRENT TIME STEP:    1212     ITERATIONS:       9

 -----------------------------------------------------------------------------------

   CUMULATIVE VOLUMES               L**3   RATES FOR THIS TIME STEP           L**3/T
   ------------------                      ------------------------

                                     IN                                         IN
                                     --                                         --
        PRECIPITATION =        1.0194D+07          PRECIPITATION =                  
           STREAMFLOW =                               STREAMFLOW =                  
     GW BOUNDARY FLOW =                         GW BOUNDARY FLOW =                  
                WELLS =           1364.80                  WELLS =             11.66


                                    OUT                                        OUT
                                    ---                                        ---
   EVAPOTRANSPIRATION =         940718.73     EVAPOTRANSPIRATION =          28248.99
           STREAMFLOW =        1037971.56             STREAMFLOW =          14966.92
     GW BOUNDARY FLOW =          40284.24       GW BOUNDARY FLOW =            718.57
                WELLS =          47056.94                  WELLS =            460.30

   INFLOWS - OUTFLOWS =        8129817.78     INFLOWS - OUTFLOWS =         -44383.12
             --------                                   --------

 TOTAL STORAGE CHANGE =        8129862.08         STORAGE CHANGE =         -44383.46
       --------------                             --------------
         LAND SURFACE =        8688894.23           LAND SURFACE =         -28248.99
            SOIL ZONE =          -1331.79              SOIL ZONE =          -6242.71
     UNSATURATED ZONE =         -42785.75       UNSATURATED ZONE =           -870.17
       SATURATED ZONE =        -514914.60         SATURATED ZONE =          -9021.59

 OVERALL BUDGET ERROR =            -44.30           BUDGET ERROR =              0.34


  PERCENT DISCREPANCY =             -0.00    PERCENT DISCREPANCY =              0.00



