1
 SUMMARY VOLUMETRIC BUDGET FOR GSFLOW 
 DATE: 12 01 1983              CUMULATIVE TIME STEP:    1157
 MODFLOW STRESS PERIOD      2     CURRENT TIME STEP:    1156     ITERATIONS:       8

 -----------------------------------------------------------------------------------

   CUMULATIVE VOLUMES               L**3   RATES FOR THIS TIME STEP           L**3/T
   ------------------                      ------------------------

                                     IN                                         IN
                                     --                                         --
        PRECIPITATION =         666506.85          PRECIPITATION =                  
           STREAMFLOW =                               STREAMFLOW =                  
     GW BOUNDARY FLOW =                         GW BOUNDARY FLOW =                  
                WELLS =             87.57                  WELLS =             11.73


                                    OUT                                        OUT
                                    ---                                        ---
   EVAPOTRANSPIRATION =          63924.96     EVAPOTRANSPIRATION =          28368.61
           STREAMFLOW =         122600.88             STREAMFLOW =          15832.31
     GW BOUNDARY FLOW =           5040.52       GW BOUNDARY FLOW =            719.65
                WELLS =           3006.79                  WELLS =            423.21

   INFLOWS - OUTFLOWS =         472021.26     INFLOWS - OUTFLOWS =         -45332.05
             --------                                   --------

 TOTAL STORAGE CHANGE =         472025.57         STORAGE CHANGE =         -45331.54
       --------------                             --------------
         LAND SURFACE =         602581.86           LAND SURFACE =         -28368.61
            SOIL ZONE =         -68555.37              SOIL ZONE =          -7092.03
     UNSATURATED ZONE =          -2264.80       UNSATURATED ZONE =          -1295.32
       SATURATED ZONE =         -59736.11         SATURATED ZONE =          -8575.58

 OVERALL BUDGET ERROR =             -4.31           BUDGET ERROR =             -0.51


  PERCENT DISCREPANCY =             -0.00    PERCENT DISCREPANCY =             -0.00



