1
 SUMMARY VOLUMETRIC BUDGET FOR GSFLOW 
 DATE: 10 07 1980              CUMULATIVE TIME STEP:       7
 MODFLOW STRESS PERIOD      2     CURRENT TIME STEP:       7     ITERATIONS:      10

 -----------------------------------------------------------------------------------

   CUMULATIVE VOLUMES               L**3   RATES FOR THIS TIME STEP           L**3/T
   ------------------                      ------------------------

                                     IN                                         IN
                                     --                                         --
        PRECIPITATION =                            PRECIPITATION =                  
           STREAMFLOW =                               STREAMFLOW =                  
     GW BOUNDARY FLOW =                         GW BOUNDARY FLOW =                  
                WELLS =              2.61                  WELLS =              0.38


                                    OUT                                        OUT
                                    ---                                        ---
   EVAPOTRANSPIRATION =          66255.21     EVAPOTRANSPIRATION =           9365.96
           STREAMFLOW =          40890.25             STREAMFLOW =           5688.54
     GW BOUNDARY FLOW =           5067.54       GW BOUNDARY FLOW =            723.82
                WELLS =          16940.66                  WELLS =           2303.51

   INFLOWS - OUTFLOWS =        -129151.06     INFLOWS - OUTFLOWS =         -18081.46
             --------                                   --------

 TOTAL STORAGE CHANGE =        -128927.65         STORAGE CHANGE =         -18050.29
       --------------                             --------------
         LAND SURFACE =                             LAND SURFACE =                  
            SOIL ZONE =          43743.64              SOIL ZONE =           6238.03
     UNSATURATED ZONE =        -144187.06       UNSATURATED ZONE =         -20266.32
       SATURATED ZONE =         -28484.22         SATURATED ZONE =          -4022.00

 OVERALL BUDGET ERROR =           -223.41           BUDGET ERROR =            -31.16


  PERCENT DISCREPANCY =             -0.17    PERCENT DISCREPANCY =             -0.17



1
 SUMMARY VOLUMETRIC BUDGET FOR GSFLOW 
 DATE: 10 14 1980              CUMULATIVE TIME STEP:      14
 MODFLOW STRESS PERIOD      2     CURRENT TIME STEP:      14     ITERATIONS:      11

 -----------------------------------------------------------------------------------

   CUMULATIVE VOLUMES               L**3   RATES FOR THIS TIME STEP           L**3/T
   ------------------                      ------------------------

                                     IN                                         IN
                                     --                                         --
        PRECIPITATION =         403289.47          PRECIPITATION =         174040.42
           STREAMFLOW =                               STREAMFLOW =                  
     GW BOUNDARY FLOW =                         GW BOUNDARY FLOW =                  
                WELLS =              5.25                  WELLS =              0.38


                                    OUT                                        OUT
                                    ---                                        ---
   EVAPOTRANSPIRATION =         143347.24     EVAPOTRANSPIRATION =           5462.50
           STREAMFLOW =          84320.29             STREAMFLOW =           6976.52
     GW BOUNDARY FLOW =          10134.18       GW BOUNDARY FLOW =            723.90
                WELLS =          32362.84                  WELLS =           2136.36

   INFLOWS - OUTFLOWS =         133130.16     INFLOWS - OUTFLOWS =         158741.51
             --------                                   --------

 TOTAL STORAGE CHANGE =         133564.92         STORAGE CHANGE =         158771.06
       --------------                             --------------
         LAND SURFACE =         150822.63           LAND SURFACE =         106712.03
            SOIL ZONE =         322715.97              SOIL ZONE =          75648.62
     UNSATURATED ZONE =        -282947.18       UNSATURATED ZONE =         -19478.30
       SATURATED ZONE =         -57026.49         SATURATED ZONE =          -4111.28

 OVERALL BUDGET ERROR =           -434.76           BUDGET ERROR =            -29.55


  PERCENT DISCREPANCY =             -0.11    PERCENT DISCREPANCY =             -0.02



1
 SUMMARY VOLUMETRIC BUDGET FOR GSFLOW 
 DATE: 10 21 1980              CUMULATIVE TIME STEP:      21
 MODFLOW STRESS PERIOD      2     CURRENT TIME STEP:      21     ITERATIONS:      11

 -----------------------------------------------------------------------------------

   CUMULATIVE VOLUMES               L**3   RATES FOR THIS TIME STEP           L**3/T
   ------------------                      ------------------------

                                     IN                                         IN
                                     --                                         --
        PRECIPITATION =         704278.11          PRECIPITATION =                  
           STREAMFLOW =                               STREAMFLOW =                  
     GW BOUNDARY FLOW =                         GW BOUNDARY FLOW =                  
                WELLS =             85.13                  WELLS =             17.89


                                    OUT                                        OUT
                                    ---                                        ---
   EVAPOTRANSPIRATION =         370203.59     EVAPOTRANSPIRATION =          46152.85
           STREAMFLOW =         133857.75             STREAMFLOW =           6934.55
     GW BOUNDARY FLOW =          15201.53       GW BOUNDARY FLOW =            723.91
                WELLS =          45096.26                  WELLS =           1174.41

   INFLOWS - OUTFLOWS =         140004.11     INFLOWS - OUTFLOWS =         -54967.83
             --------                                   --------

 TOTAL STORAGE CHANGE =         140638.57         STORAGE CHANGE =         -54940.23
       --------------                             --------------
         LAND SURFACE =           4707.66           LAND SURFACE =          -7723.11
            SOIL ZONE =         637761.71              SOIL ZONE =         -24673.00
     UNSATURATED ZONE =        -416143.58       UNSATURATED ZONE =         -18669.63
       SATURATED ZONE =         -85687.22         SATURATED ZONE =          -3874.49

 OVERALL BUDGET ERROR =           -634.46           BUDGET ERROR =            -27.60


  PERCENT DISCREPANCY =             -0.09    PERCENT DISCREPANCY =             -0.05



1
 SUMMARY VOLUMETRIC BUDGET FOR GSFLOW 
 DATE: 10 28 1980              CUMULATIVE TIME STEP:      28
 MODFLOW STRESS PERIOD      2     CURRENT TIME STEP:      28     ITERATIONS:      11

 -----------------------------------------------------------------------------------

   CUMULATIVE VOLUMES               L**3   RATES FOR THIS TIME STEP           L**3/T
   ------------------                      ------------------------

                                     IN                                         IN
                                     --                                         --
        PRECIPITATION =         893052.32          PRECIPITATION =                  
           STREAMFLOW =                               STREAMFLOW =                  
     GW BOUNDARY FLOW =                         GW BOUNDARY FLOW =                  
                WELLS =             87.78                  WELLS =              0.38


                                    OUT                                        OUT
                                    ---                                        ---
   EVAPOTRANSPIRATION =         561606.85     EVAPOTRANSPIRATION =          26660.61
           STREAMFLOW =         180975.95             STREAMFLOW =           6927.86
     GW BOUNDARY FLOW =          20267.95       GW BOUNDARY FLOW =            723.77
                WELLS =          58701.16                  WELLS =           1929.81

   INFLOWS - OUTFLOWS =          71588.19     INFLOWS - OUTFLOWS =         -36241.68
             --------                                   --------

 TOTAL STORAGE CHANGE =          72409.49         STORAGE CHANGE =         -36215.56
       --------------                             --------------
         LAND SURFACE =          19525.56           LAND SURFACE =         -38596.10
            SOIL ZONE =         716473.28              SOIL ZONE =          25326.77
     UNSATURATED ZONE =        -543549.53       UNSATURATED ZONE =         -17894.11
       SATURATED ZONE =        -120039.82         SATURATED ZONE =          -5052.12

 OVERALL BUDGET ERROR =           -821.30           BUDGET ERROR =            -26.12


  PERCENT DISCREPANCY =             -0.09    PERCENT DISCREPANCY =             -0.07



1
 SUMMARY VOLUMETRIC BUDGET FOR GSFLOW 
 DATE: 11 04 1980              CUMULATIVE TIME STEP:      35
 MODFLOW STRESS PERIOD      2     CURRENT TIME STEP:      35     ITERATIONS:      11

 -----------------------------------------------------------------------------------

   CUMULATIVE VOLUMES               L**3   RATES FOR THIS TIME STEP           L**3/T
   ------------------                      ------------------------

                                     IN                                         IN
                                     --                                         --
        PRECIPITATION =         893052.32          PRECIPITATION =                  
           STREAMFLOW =                               STREAMFLOW =                  
     GW BOUNDARY FLOW =                         GW BOUNDARY FLOW =                  
                WELLS =            152.40                  WELLS =              0.38


                                    OUT                                        OUT
                                    ---                                        ---
   EVAPOTRANSPIRATION =         827880.42     EVAPOTRANSPIRATION =          40339.26
           STREAMFLOW =         227371.41             STREAMFLOW =           6258.46
     GW BOUNDARY FLOW =          25333.77       GW BOUNDARY FLOW =            723.62
                WELLS =          70198.92                  WELLS =           1860.14

   INFLOWS - OUTFLOWS =        -257579.80     INFLOWS - OUTFLOWS =         -49181.09
             --------                                   --------

 TOTAL STORAGE CHANGE =        -256582.73         STORAGE CHANGE =         -49156.60
       --------------                             --------------
         LAND SURFACE =                             LAND SURFACE =                  
            SOIL ZONE =         565626.94              SOIL ZONE =         -26372.13
     UNSATURATED ZONE =        -665848.02       UNSATURATED ZONE =         -17178.40
       SATURATED ZONE =        -156361.65         SATURATED ZONE =          -5606.08

 OVERALL BUDGET ERROR =           -997.07           BUDGET ERROR =            -24.48


  PERCENT DISCREPANCY =             -0.09    PERCENT DISCREPANCY =             -0.05



1
 SUMMARY VOLUMETRIC BUDGET FOR GSFLOW 
 DATE: 11 11 1980              CUMULATIVE TIME STEP:      42
 MODFLOW STRESS PERIOD      2     CURRENT TIME STEP:      42     ITERATIONS:      11

 -----------------------------------------------------------------------------------

   CUMULATIVE VOLUMES               L**3   RATES FOR THIS TIME STEP           L**3/T
   ------------------                      ------------------------

                                     IN                                         IN
                                     --                                         --
        PRECIPITATION =        1445195.46          PRECIPITATION =         164672.55
           STREAMFLOW =                               STREAMFLOW =                  
     GW BOUNDARY FLOW =                         GW BOUNDARY FLOW =                  
                WELLS =            155.08                  WELLS =              0.38


                                    OUT                                        OUT
                                    ---                                        ---
   EVAPOTRANSPIRATION =        1059956.71     EVAPOTRANSPIRATION =          16588.99
           STREAMFLOW =         281546.92             STREAMFLOW =           9090.74
     GW BOUNDARY FLOW =          30400.12       GW BOUNDARY FLOW =            723.93
                WELLS =          82733.94                  WELLS =           1789.90

   INFLOWS - OUTFLOWS =          -9287.15     INFLOWS - OUTFLOWS =         136479.38
             --------                                   --------

 TOTAL STORAGE CHANGE =          -8123.66         STORAGE CHANGE =         136502.66
       --------------                             --------------
         LAND SURFACE =          69010.13           LAND SURFACE =          66606.95
            SOIL ZONE =         901394.87              SOIL ZONE =          91917.63
     UNSATURATED ZONE =        -783334.64       UNSATURATED ZONE =         -16474.65
       SATURATED ZONE =        -195194.02         SATURATED ZONE =          -5547.28

 OVERALL BUDGET ERROR =          -1163.49           BUDGET ERROR =            -23.28


  PERCENT DISCREPANCY =             -0.08    PERCENT DISCREPANCY =             -0.01



1
 SUMMARY VOLUMETRIC BUDGET FOR GSFLOW 
 DATE: 11 18 1980              CUMULATIVE TIME STEP:      49
 MODFLOW STRESS PERIOD      2     CURRENT TIME STEP:      49     ITERATIONS:      17

 -----------------------------------------------------------------------------------

   CUMULATIVE VOLUMES               L**3   RATES FOR THIS TIME STEP           L**3/T
   ------------------                      ------------------------

                                     IN                                         IN
                                     --                                         --
        PRECIPITATION =        1527531.73          PRECIPITATION =                  
           STREAMFLOW =                               STREAMFLOW =                  
     GW BOUNDARY FLOW =                         GW BOUNDARY FLOW =                  
                WELLS =            189.99                  WELLS =             32.60


                                    OUT                                        OUT
                                    ---                                        ---
   EVAPOTRANSPIRATION =        1166891.17     EVAPOTRANSPIRATION =          23721.23
           STREAMFLOW =         341346.15             STREAMFLOW =           8674.35
     GW BOUNDARY FLOW =          35467.87       GW BOUNDARY FLOW =            723.97
                WELLS =          94677.54                  WELLS =           1375.73

   INFLOWS - OUTFLOWS =        -110661.01     INFLOWS - OUTFLOWS =         -34462.67
             --------                                   --------

 TOTAL STORAGE CHANGE =        -109340.26         STORAGE CHANGE =         -34440.95
       --------------                             --------------
         LAND SURFACE =            700.96           LAND SURFACE =          -5282.99
            SOIL ZONE =        1022328.79              SOIL ZONE =          -7595.30
     UNSATURATED ZONE =        -895917.28       UNSATURATED ZONE =         -15796.90
       SATURATED ZONE =        -236452.73         SATURATED ZONE =          -5765.75

 OVERALL BUDGET ERROR =          -1320.75           BUDGET ERROR =            -21.72


  PERCENT DISCREPANCY =             -0.08    PERCENT DISCREPANCY =             -0.06



1
 SUMMARY VOLUMETRIC BUDGET FOR GSFLOW 
 DATE: 11 25 1980              CUMULATIVE TIME STEP:      56
 MODFLOW STRESS PERIOD      2     CURRENT TIME STEP:      56     ITERATIONS:      11

 -----------------------------------------------------------------------------------

   CUMULATIVE VOLUMES               L**3   RATES FOR THIS TIME STEP           L**3/T
   ------------------                      ------------------------

                                     IN                                         IN
                                     --                                         --
        PRECIPITATION =        1583878.73          PRECIPITATION =                  
           STREAMFLOW =                               STREAMFLOW =                  
     GW BOUNDARY FLOW =                         GW BOUNDARY FLOW =                  
                WELLS =            336.54                  WELLS =             20.78


                                    OUT                                        OUT
                                    ---                                        ---
   EVAPOTRANSPIRATION =        1275822.61     EVAPOTRANSPIRATION =          12836.12
           STREAMFLOW =         400601.39             STREAMFLOW =           8436.60
     GW BOUNDARY FLOW =          40535.49       GW BOUNDARY FLOW =            723.93
                WELLS =         104181.88                  WELLS =           1346.19

   INFLOWS - OUTFLOWS =        -236926.10     INFLOWS - OUTFLOWS =         -23322.06
             --------                                   --------

 TOTAL STORAGE CHANGE =        -235457.70         STORAGE CHANGE =         -23301.46
       --------------                             --------------
         LAND SURFACE =          41331.51           LAND SURFACE =         -13376.93
            SOIL ZONE =        1006549.40              SOIL ZONE =          11574.18
     UNSATURATED ZONE =       -1004244.75       UNSATURATED ZONE =         -15206.77
       SATURATED ZONE =        -279093.86         SATURATED ZONE =          -6291.94

 OVERALL BUDGET ERROR =          -1468.40           BUDGET ERROR =            -20.60


  PERCENT DISCREPANCY =             -0.08    PERCENT DISCREPANCY =             -0.09



1
 SUMMARY VOLUMETRIC BUDGET FOR GSFLOW 
 DATE: 12 02 1980              CUMULATIVE TIME STEP:      63
 MODFLOW STRESS PERIOD      2     CURRENT TIME STEP:      63     ITERATIONS:      11

 -----------------------------------------------------------------------------------

   CUMULATIVE VOLUMES               L**3   RATES FOR THIS TIME STEP           L**3/T
   ------------------                      ------------------------

                                     IN                                         IN
                                     --                                         --
        PRECIPITATION =        2084797.03          PRECIPITATION =         217997.75
           STREAMFLOW =                               STREAMFLOW =                  
     GW BOUNDARY FLOW =                         GW BOUNDARY FLOW =                  
                WELLS =            484.73                  WELLS =             21.44


                                    OUT                                        OUT
                                    ---                                        ---
   EVAPOTRANSPIRATION =        1434257.17     EVAPOTRANSPIRATION =           9909.91
           STREAMFLOW =         470119.03             STREAMFLOW =          11698.40
     GW BOUNDARY FLOW =          45604.15       GW BOUNDARY FLOW =            724.35
                WELLS =         113512.17                  WELLS =           1323.65

   INFLOWS - OUTFLOWS =          21789.24     INFLOWS - OUTFLOWS =         194362.88
             --------                                   --------

 TOTAL STORAGE CHANGE =          23395.81         STORAGE CHANGE =         194382.03
       --------------                             --------------
         LAND SURFACE =         279295.42           LAND SURFACE =         190220.62
            SOIL ZONE =        1175779.31              SOIL ZONE =          25009.64
     UNSATURATED ZONE =       -1108099.92       UNSATURATED ZONE =         -14453.45
       SATURATED ZONE =        -323579.00         SATURATED ZONE =          -6394.78

 OVERALL BUDGET ERROR =          -1606.58           BUDGET ERROR =            -19.15


  PERCENT DISCREPANCY =             -0.08    PERCENT DISCREPANCY =             -0.01



1
 SUMMARY VOLUMETRIC BUDGET FOR GSFLOW 
 DATE: 12 09 1980              CUMULATIVE TIME STEP:      70
 MODFLOW STRESS PERIOD      2     CURRENT TIME STEP:      70     ITERATIONS:      11

 -----------------------------------------------------------------------------------

   CUMULATIVE VOLUMES               L**3   RATES FOR THIS TIME STEP           L**3/T
   ------------------                      ------------------------

                                     IN                                         IN
                                     --                                         --
        PRECIPITATION =        3709398.40          PRECIPITATION =                  
           STREAMFLOW =                               STREAMFLOW =                  
     GW BOUNDARY FLOW =                         GW BOUNDARY FLOW =                  
                WELLS =            637.12                  WELLS =             22.00


                                    OUT                                        OUT
                                    ---                                        ---
   EVAPOTRANSPIRATION =        1471519.57     EVAPOTRANSPIRATION =          12841.84
           STREAMFLOW =         551800.35             STREAMFLOW =          12118.28
     GW BOUNDARY FLOW =          50675.40       GW BOUNDARY FLOW =            724.55
                WELLS =         122702.75                  WELLS =           1305.43

   INFLOWS - OUTFLOWS =        1513337.46     INFLOWS - OUTFLOWS =         -26968.09
             --------                                   --------

 TOTAL STORAGE CHANGE =        1515073.23         STORAGE CHANGE =         -26950.10
       --------------                             --------------
         LAND SURFACE =        1866133.18           LAND SURFACE =         -12841.84
            SOIL ZONE =        1226182.29              SOIL ZONE =           6651.92
     UNSATURATED ZONE =       -1207274.89       UNSATURATED ZONE =         -13980.96
       SATURATED ZONE =        -369967.34         SATURATED ZONE =          -6779.22

 OVERALL BUDGET ERROR =          -1735.78           BUDGET ERROR =            -17.99


  PERCENT DISCREPANCY =             -0.05    PERCENT DISCREPANCY =             -0.07



1
 SUMMARY VOLUMETRIC BUDGET FOR GSFLOW 
 DATE: 12 16 1980              CUMULATIVE TIME STEP:      77
 MODFLOW STRESS PERIOD      2     CURRENT TIME STEP:      77     ITERATIONS:      11

 -----------------------------------------------------------------------------------

   CUMULATIVE VOLUMES               L**3   RATES FOR THIS TIME STEP           L**3/T
   ------------------                      ------------------------

                                     IN                                         IN
                                     --                                         --
        PRECIPITATION =        3709398.40          PRECIPITATION =                  
           STREAMFLOW =                               STREAMFLOW =                  
     GW BOUNDARY FLOW =                         GW BOUNDARY FLOW =                  
                WELLS =            792.99                  WELLS =             22.45


                                    OUT                                        OUT
                                    ---                                        ---
   EVAPOTRANSPIRATION =        1683980.18     EVAPOTRANSPIRATION =          45947.82
           STREAMFLOW =         692471.77             STREAMFLOW =          37205.21
     GW BOUNDARY FLOW =          55751.86       GW BOUNDARY FLOW =            726.60
                WELLS =         131779.37                  WELLS =           1290.53

   INFLOWS - OUTFLOWS =        1146208.21     INFLOWS - OUTFLOWS =         -85147.71
             --------                                   --------

 TOTAL STORAGE CHANGE =        1148067.25         STORAGE CHANGE =         -85130.46
       --------------                             --------------
         LAND SURFACE =        1097394.69           LAND SURFACE =        -242595.26
            SOIL ZONE =        1765170.79              SOIL ZONE =         174768.64
     UNSATURATED ZONE =       -1298428.23       UNSATURATED ZONE =         -11420.10
       SATURATED ZONE =        -416069.99         SATURATED ZONE =          -5883.74

 OVERALL BUDGET ERROR =          -1859.05           BUDGET ERROR =            -17.25


  PERCENT DISCREPANCY =             -0.05    PERCENT DISCREPANCY =             -0.02



1
 SUMMARY VOLUMETRIC BUDGET FOR GSFLOW 
 DATE: 12 23 1980              CUMULATIVE TIME STEP:      84
 MODFLOW STRESS PERIOD      2     CURRENT TIME STEP:      84     ITERATIONS:      12

 -----------------------------------------------------------------------------------

   CUMULATIVE VOLUMES               L**3   RATES FOR THIS TIME STEP           L**3/T
   ------------------                      ------------------------

                                     IN                                         IN
                                     --                                         --
        PRECIPITATION =        3709398.40          PRECIPITATION =                  
           STREAMFLOW =                               STREAMFLOW =                  
     GW BOUNDARY FLOW =                         GW BOUNDARY FLOW =                  
                WELLS =            951.65                  WELLS =             22.83


                                    OUT                                        OUT
                                    ---                                        ---
   EVAPOTRANSPIRATION =        1911606.99     EVAPOTRANSPIRATION =          32126.51
           STREAMFLOW =         946503.02             STREAMFLOW =          29813.51
     GW BOUNDARY FLOW =          60845.76       GW BOUNDARY FLOW =            727.59
                WELLS =         140762.28                  WELLS =           1278.09

   INFLOWS - OUTFLOWS =         650632.00     INFLOWS - OUTFLOWS =         -63922.88
             --------                                   --------

 TOTAL STORAGE CHANGE =         652605.99         STORAGE CHANGE =         -63907.09
       --------------                             --------------
         LAND SURFACE =         399376.49           LAND SURFACE =         -51279.29
            SOIL ZONE =        2087291.32              SOIL ZONE =           4804.17
     UNSATURATED ZONE =       -1371156.94       UNSATURATED ZONE =         -10257.94
       SATURATED ZONE =        -462904.88         SATURATED ZONE =          -7174.04

 OVERALL BUDGET ERROR =          -1973.99           BUDGET ERROR =            -15.79


  PERCENT DISCREPANCY =             -0.05    PERCENT DISCREPANCY =             -0.02



1
 SUMMARY VOLUMETRIC BUDGET FOR GSFLOW 
 DATE: 12 30 1980              CUMULATIVE TIME STEP:      91
 MODFLOW STRESS PERIOD      2     CURRENT TIME STEP:      91     ITERATIONS:      12

 -----------------------------------------------------------------------------------

   CUMULATIVE VOLUMES               L**3   RATES FOR THIS TIME STEP           L**3/T
   ------------------                      ------------------------

                                     IN                                         IN
                                     --                                         --
        PRECIPITATION =        3709398.40          PRECIPITATION =                  
           STREAMFLOW =                               STREAMFLOW =                  
     GW BOUNDARY FLOW =                         GW BOUNDARY FLOW =                  
                WELLS =           1124.96                  WELLS =             27.15


                                    OUT                                        OUT
                                    ---                                        ---
   EVAPOTRANSPIRATION =        2270547.84     EVAPOTRANSPIRATION =          56329.85
           STREAMFLOW =        1130064.00             STREAMFLOW =          20565.43
     GW BOUNDARY FLOW =          65935.39       GW BOUNDARY FLOW =            726.51
                WELLS =         148588.05                  WELLS =            909.06

   INFLOWS - OUTFLOWS =          95388.09     INFLOWS - OUTFLOWS =         -78503.71
             --------                                   --------

 TOTAL STORAGE CHANGE =          97466.03         STORAGE CHANGE =         -78489.43
       --------------                             --------------
         LAND SURFACE =          46840.62           LAND SURFACE =         -16420.20
            SOIL ZONE =        2006293.27              SOIL ZONE =         -44017.78
     UNSATURATED ZONE =       -1441446.24       UNSATURATED ZONE =         -10383.35
       SATURATED ZONE =        -514221.61         SATURATED ZONE =          -7668.10

 OVERALL BUDGET ERROR =          -2077.94           BUDGET ERROR =            -14.28


  PERCENT DISCREPANCY =             -0.06    PERCENT DISCREPANCY =             -0.02



1
 SUMMARY VOLUMETRIC BUDGET FOR GSFLOW 
 DATE: 01 06 1981              CUMULATIVE TIME STEP:      98
 MODFLOW STRESS PERIOD      2     CURRENT TIME STEP:      98     ITERATIONS:      11

 -----------------------------------------------------------------------------------

   CUMULATIVE VOLUMES               L**3   RATES FOR THIS TIME STEP           L**3/T
   ------------------                      ------------------------

                                     IN                                         IN
                                     --                                         --
        PRECIPITATION =        3929400.55          PRECIPITATION =                  
           STREAMFLOW =                               STREAMFLOW =                  
     GW BOUNDARY FLOW =                         GW BOUNDARY FLOW =                  
                WELLS =           1313.34                  WELLS =             26.62


                                    OUT                                        OUT
                                    ---                                        ---
   EVAPOTRANSPIRATION =        2546814.19     EVAPOTRANSPIRATION =          31283.68
           STREAMFLOW =        1249720.47             STREAMFLOW =          16842.28
     GW BOUNDARY FLOW =          71015.92       GW BOUNDARY FLOW =            725.61
                WELLS =         154925.94                  WELLS =            902.66

   INFLOWS - OUTFLOWS =         -91762.63     INFLOWS - OUTFLOWS =         -49727.61
             --------                                   --------

 TOTAL STORAGE CHANGE =         -89587.60         STORAGE CHANGE =         -49714.38
       --------------                             --------------
         LAND SURFACE =          32482.49           LAND SURFACE =         -26549.78
            SOIL ZONE =        1965621.15              SOIL ZONE =          -4237.64
     UNSATURATED ZONE =       -1518473.64       UNSATURATED ZONE =         -10901.15
       SATURATED ZONE =        -569217.61         SATURATED ZONE =          -8025.81

 OVERALL BUDGET ERROR =          -2175.03           BUDGET ERROR =            -13.24


  PERCENT DISCREPANCY =             -0.05    PERCENT DISCREPANCY =             -0.03



1
 SUMMARY VOLUMETRIC BUDGET FOR GSFLOW 
 DATE: 01 13 1981              CUMULATIVE TIME STEP:     105
 MODFLOW STRESS PERIOD      2     CURRENT TIME STEP:     105     ITERATIONS:      11

 -----------------------------------------------------------------------------------

   CUMULATIVE VOLUMES               L**3   RATES FOR THIS TIME STEP           L**3/T
   ------------------                      ------------------------

                                     IN                                         IN
                                     --                                         --
        PRECIPITATION =        3929400.55          PRECIPITATION =                  
           STREAMFLOW =                               STREAMFLOW =                  
     GW BOUNDARY FLOW =                         GW BOUNDARY FLOW =                  
                WELLS =           1496.98                  WELLS =             25.95


                                    OUT                                        OUT
                                    ---                                        ---
   EVAPOTRANSPIRATION =        2807601.19     EVAPOTRANSPIRATION =          39187.96
           STREAMFLOW =        1352374.26             STREAMFLOW =          12594.52
     GW BOUNDARY FLOW =          76093.10       GW BOUNDARY FLOW =            725.01
                WELLS =         161221.00                  WELLS =            896.87

   INFLOWS - OUTFLOWS =        -466392.02     INFLOWS - OUTFLOWS =         -53378.41
             --------                                   --------

 TOTAL STORAGE CHANGE =        -464128.10         STORAGE CHANGE =         -53366.00
       --------------                             --------------
         LAND SURFACE =          17582.15           LAND SURFACE =           -706.27
            SOIL ZONE =        1742670.47              SOIL ZONE =         -32683.99
     UNSATURATED ZONE =       -1595965.81       UNSATURATED ZONE =         -11232.27
       SATURATED ZONE =        -628414.91         SATURATED ZONE =          -8743.48

 OVERALL BUDGET ERROR =          -2263.92           BUDGET ERROR =            -12.40


  PERCENT DISCREPANCY =             -0.05    PERCENT DISCREPANCY =             -0.02



1
 SUMMARY VOLUMETRIC BUDGET FOR GSFLOW 
 DATE: 01 20 1981              CUMULATIVE TIME STEP:     112
 MODFLOW STRESS PERIOD      2     CURRENT TIME STEP:     112     ITERATIONS:      12

 -----------------------------------------------------------------------------------

   CUMULATIVE VOLUMES               L**3   RATES FOR THIS TIME STEP           L**3/T
   ------------------                      ------------------------

                                     IN                                         IN
                                     --                                         --
        PRECIPITATION =        3934797.64          PRECIPITATION =                  
           STREAMFLOW =                               STREAMFLOW =                  
     GW BOUNDARY FLOW =                         GW BOUNDARY FLOW =                  
                WELLS =           1676.13                  WELLS =             25.33


                                    OUT                                        OUT
                                    ---                                        ---
   EVAPOTRANSPIRATION =        3080603.85     EVAPOTRANSPIRATION =          41927.00
           STREAMFLOW =        1425361.31             STREAMFLOW =           9142.22
     GW BOUNDARY FLOW =          81165.81       GW BOUNDARY FLOW =            724.44
                WELLS =         167478.29                  WELLS =            891.76

   INFLOWS - OUTFLOWS =        -818135.49     INFLOWS - OUTFLOWS =         -52660.08
             --------                                   --------

 TOTAL STORAGE CHANGE =        -815787.78         STORAGE CHANGE =         -52648.45
       --------------                             --------------
         LAND SURFACE =          11815.05           LAND SURFACE =          -1440.69
            SOIL ZONE =        1537684.46              SOIL ZONE =         -31052.93
     UNSATURATED ZONE =       -1673877.61       UNSATURATED ZONE =         -11012.11
       SATURATED ZONE =        -691409.68         SATURATED ZONE =          -9142.72

 OVERALL BUDGET ERROR =          -2347.71           BUDGET ERROR =            -11.64


  PERCENT DISCREPANCY =             -0.05    PERCENT DISCREPANCY =             -0.02



1
 SUMMARY VOLUMETRIC BUDGET FOR GSFLOW 
 DATE: 01 27 1981              CUMULATIVE TIME STEP:     119
 MODFLOW STRESS PERIOD      2     CURRENT TIME STEP:     119     ITERATIONS:      12

 -----------------------------------------------------------------------------------

   CUMULATIVE VOLUMES               L**3   RATES FOR THIS TIME STEP           L**3/T
   ------------------                      ------------------------

                                     IN                                         IN
                                     --                                         --
        PRECIPITATION =        6080782.22          PRECIPITATION =        1101441.08
           STREAMFLOW =                               STREAMFLOW =                  
     GW BOUNDARY FLOW =                         GW BOUNDARY FLOW =                  
                WELLS =           1849.29                  WELLS =             23.90


                                    OUT                                        OUT
                                    ---                                        ---
   EVAPOTRANSPIRATION =        3235143.02     EVAPOTRANSPIRATION =          10796.47
           STREAMFLOW =        1498532.10             STREAMFLOW =          11293.04
     GW BOUNDARY FLOW =          86237.09       GW BOUNDARY FLOW =            724.56
                WELLS =         173702.90                  WELLS =            887.54

   INFLOWS - OUTFLOWS =        1089016.38     INFLOWS - OUTFLOWS =        1077763.37
             --------                                   --------

 TOTAL STORAGE CHANGE =        1091441.58         STORAGE CHANGE =        1077773.90
       --------------                             --------------
         LAND SURFACE =        1935274.25           LAND SURFACE =        1090644.60
            SOIL ZONE =        1660425.66              SOIL ZONE =           6871.21
     UNSATURATED ZONE =       -1748173.05       UNSATURATED ZONE =         -10415.81
       SATURATED ZONE =        -756085.28         SATURATED ZONE =          -9326.11

 OVERALL BUDGET ERROR =          -2425.19           BUDGET ERROR =            -10.53


  PERCENT DISCREPANCY =             -0.04    PERCENT DISCREPANCY =             -0.00



1
 SUMMARY VOLUMETRIC BUDGET FOR GSFLOW 
 DATE: 02 03 1981              CUMULATIVE TIME STEP:     126
 MODFLOW STRESS PERIOD      2     CURRENT TIME STEP:     126     ITERATIONS:      13

 -----------------------------------------------------------------------------------

   CUMULATIVE VOLUMES               L**3   RATES FOR THIS TIME STEP           L**3/T
   ------------------                      ------------------------

                                     IN                                         IN
                                     --                                         --
        PRECIPITATION =        8802115.43          PRECIPITATION =                  
           STREAMFLOW =                               STREAMFLOW =                  
     GW BOUNDARY FLOW =                         GW BOUNDARY FLOW =                  
                WELLS =           1999.45                  WELLS =              6.52


                                    OUT                                        OUT
                                    ---                                        ---
   EVAPOTRANSPIRATION =        3284163.43     EVAPOTRANSPIRATION =          13261.65
           STREAMFLOW =        1587563.46             STREAMFLOW =          13750.55
     GW BOUNDARY FLOW =          91310.26       GW BOUNDARY FLOW =            724.88
                WELLS =         182385.85                  WELLS =            810.32

   INFLOWS - OUTFLOWS =        3658691.88     INFLOWS - OUTFLOWS =         -28540.88
             --------                                   --------

 TOTAL STORAGE CHANGE =        3661186.81         STORAGE CHANGE =         -28531.36
       --------------                             --------------
         LAND SURFACE =        4607587.05           LAND SURFACE =         -13261.65
            SOIL ZONE =        1697354.84              SOIL ZONE =           4207.15
     UNSATURATED ZONE =       -1819587.43       UNSATURATED ZONE =         -10033.38
       SATURATED ZONE =        -824167.65         SATURATED ZONE =          -9443.49

 OVERALL BUDGET ERROR =          -2494.93           BUDGET ERROR =             -9.52


  PERCENT DISCREPANCY =             -0.03    PERCENT DISCREPANCY =             -0.03



1
 SUMMARY VOLUMETRIC BUDGET FOR GSFLOW 
 DATE: 02 10 1981              CUMULATIVE TIME STEP:     133
 MODFLOW STRESS PERIOD      2     CURRENT TIME STEP:     133     ITERATIONS:      12

 -----------------------------------------------------------------------------------

   CUMULATIVE VOLUMES               L**3   RATES FOR THIS TIME STEP           L**3/T
   ------------------                      ------------------------

                                     IN                                         IN
                                     --                                         --
        PRECIPITATION =        8811949.58          PRECIPITATION =                  
           STREAMFLOW =                               STREAMFLOW =                  
     GW BOUNDARY FLOW =                         GW BOUNDARY FLOW =                  
                WELLS =           2086.86                  WELLS =             12.79


                                    OUT                                        OUT
                                    ---                                        ---
   EVAPOTRANSPIRATION =        3392441.95     EVAPOTRANSPIRATION =          21067.61
           STREAMFLOW =        1690386.19             STREAMFLOW =          15204.75
     GW BOUNDARY FLOW =          96385.46       GW BOUNDARY FLOW =            725.11
                WELLS =         188029.50                  WELLS =            798.84

   INFLOWS - OUTFLOWS =        3446793.34     INFLOWS - OUTFLOWS =         -37783.52
             --------                                   --------

 TOTAL STORAGE CHANGE =        3449351.44         STORAGE CHANGE =         -37774.76
       --------------                             --------------
         LAND SURFACE =        4509142.67           LAND SURFACE =         -21067.61
            SOIL ZONE =        1720098.09              SOIL ZONE =           2707.51
     UNSATURATED ZONE =       -1888038.01       UNSATURATED ZONE =          -9589.23
       SATURATED ZONE =        -891851.32         SATURATED ZONE =          -9825.44

 OVERALL BUDGET ERROR =          -2558.11           BUDGET ERROR =             -8.76


  PERCENT DISCREPANCY =             -0.03    PERCENT DISCREPANCY =             -0.02



1
 SUMMARY VOLUMETRIC BUDGET FOR GSFLOW 
 DATE: 02 17 1981              CUMULATIVE TIME STEP:     140
 MODFLOW STRESS PERIOD      2     CURRENT TIME STEP:     140     ITERATIONS:      12

 -----------------------------------------------------------------------------------

   CUMULATIVE VOLUMES               L**3   RATES FOR THIS TIME STEP           L**3/T
   ------------------                      ------------------------

                                     IN                                         IN
                                     --                                         --
        PRECIPITATION =        1.0087D+07          PRECIPITATION =         108298.87
           STREAMFLOW =                               STREAMFLOW =                  
     GW BOUNDARY FLOW =                         GW BOUNDARY FLOW =                  
                WELLS =           2173.33                  WELLS =             15.33


                                    OUT                                        OUT
                                    ---                                        ---
   EVAPOTRANSPIRATION =        3676318.52     EVAPOTRANSPIRATION =          58721.94
           STREAMFLOW =        2256495.32             STREAMFLOW =         144819.14
     GW BOUNDARY FLOW =         101489.97       GW BOUNDARY FLOW =            733.87
                WELLS =         194557.65                  WELLS =           1271.07

   INFLOWS - OUTFLOWS =        3859919.00     INFLOWS - OUTFLOWS =         -97231.81
             --------                                   --------

 TOTAL STORAGE CHANGE =        3862540.19         STORAGE CHANGE =         -97223.07
       --------------                             --------------
         LAND SURFACE =        3726094.34           LAND SURFACE =        -273427.07
            SOIL ZONE =        2988413.59              SOIL ZONE =         175876.26
     UNSATURATED ZONE =       -1904669.16       UNSATURATED ZONE =           7260.21
       SATURATED ZONE =        -947298.57         SATURATED ZONE =          -6932.46

 OVERALL BUDGET ERROR =          -2621.19           BUDGET ERROR =             -8.75


  PERCENT DISCREPANCY =             -0.03    PERCENT DISCREPANCY =             -0.00



1
 SUMMARY VOLUMETRIC BUDGET FOR GSFLOW 
 DATE: 02 24 1981              CUMULATIVE TIME STEP:     147
 MODFLOW STRESS PERIOD      2     CURRENT TIME STEP:     147     ITERATIONS:      12

 -----------------------------------------------------------------------------------

   CUMULATIVE VOLUMES               L**3   RATES FOR THIS TIME STEP           L**3/T
   ------------------                      ------------------------

                                     IN                                         IN
                                     --                                         --
        PRECIPITATION =        1.0560D+07          PRECIPITATION =         473376.13
           STREAMFLOW =                               STREAMFLOW =                  
     GW BOUNDARY FLOW =                         GW BOUNDARY FLOW =                  
                WELLS =           2300.39                  WELLS =             18.86


                                    OUT                                        OUT
                                    ---                                        ---
   EVAPOTRANSPIRATION =        3996426.54     EVAPOTRANSPIRATION =          20787.25
           STREAMFLOW =        2998098.84             STREAMFLOW =         123052.05
     GW BOUNDARY FLOW =         106627.27       GW BOUNDARY FLOW =            733.98
                WELLS =         202598.06                  WELLS =            876.01

   INFLOWS - OUTFLOWS =        3258532.95     INFLOWS - OUTFLOWS =         327945.70
             --------                                   --------

 TOTAL STORAGE CHANGE =        3261209.88         STORAGE CHANGE =         327954.11
       --------------                             --------------
         LAND SURFACE =        3021927.80           LAND SURFACE =         234734.31
            SOIL ZONE =        3084482.95              SOIL ZONE =          89272.07
     UNSATURATED ZONE =       -1838466.81       UNSATURATED ZONE =          11395.12
       SATURATED ZONE =       -1006734.06         SATURATED ZONE =          -7447.38

 OVERALL BUDGET ERROR =          -2676.93           BUDGET ERROR =             -8.40


  PERCENT DISCREPANCY =             -0.03    PERCENT DISCREPANCY =             -0.00



1
 SUMMARY VOLUMETRIC BUDGET FOR GSFLOW 
 DATE: 03 03 1981              CUMULATIVE TIME STEP:     154
 MODFLOW STRESS PERIOD      2     CURRENT TIME STEP:     154     ITERATIONS:      12

 -----------------------------------------------------------------------------------

   CUMULATIVE VOLUMES               L**3   RATES FOR THIS TIME STEP           L**3/T
   ------------------                      ------------------------

                                     IN                                         IN
                                     --                                         --
        PRECIPITATION =        1.1273D+07          PRECIPITATION =                  
           STREAMFLOW =                               STREAMFLOW =                  
     GW BOUNDARY FLOW =                         GW BOUNDARY FLOW =                  
                WELLS =           2417.54                  WELLS =             24.23


                                    OUT                                        OUT
                                    ---                                        ---
   EVAPOTRANSPIRATION =        4113169.17     EVAPOTRANSPIRATION =          40276.78
           STREAMFLOW =        3372276.19             STREAMFLOW =          38836.18
     GW BOUNDARY FLOW =         111743.81       GW BOUNDARY FLOW =            729.11
                WELLS =         209626.26                  WELLS =            899.21

   INFLOWS - OUTFLOWS =        3468931.15     INFLOWS - OUTFLOWS =         -80717.05
             --------                                   --------

 TOTAL STORAGE CHANGE =        3471647.72         STORAGE CHANGE =         -80712.38
       --------------                             --------------
         LAND SURFACE =        3606530.05           LAND SURFACE =         -51898.36
            SOIL ZONE =        2738704.29              SOIL ZONE =         -21656.69
     UNSATURATED ZONE =       -1800006.52       UNSATURATED ZONE =           2276.07
       SATURATED ZONE =       -1073580.11         SATURATED ZONE =          -9433.41

 OVERALL BUDGET ERROR =          -2716.57           BUDGET ERROR =             -4.67


  PERCENT DISCREPANCY =             -0.02    PERCENT DISCREPANCY =             -0.01



1
 SUMMARY VOLUMETRIC BUDGET FOR GSFLOW 
 DATE: 03 10 1981              CUMULATIVE TIME STEP:     161
 MODFLOW STRESS PERIOD      2     CURRENT TIME STEP:     161     ITERATIONS:      12

 -----------------------------------------------------------------------------------

   CUMULATIVE VOLUMES               L**3   RATES FOR THIS TIME STEP           L**3/T
   ------------------                      ------------------------

                                     IN                                         IN
                                     --                                         --
        PRECIPITATION =        1.1273D+07          PRECIPITATION =                  
           STREAMFLOW =                               STREAMFLOW =                  
     GW BOUNDARY FLOW =                         GW BOUNDARY FLOW =                  
                WELLS =           2587.92                  WELLS =             27.70


                                    OUT                                        OUT
                                    ---                                        ---
   EVAPOTRANSPIRATION =        4393189.59     EVAPOTRANSPIRATION =          70879.21
           STREAMFLOW =        3733951.15             STREAMFLOW =          80083.91
     GW BOUNDARY FLOW =         116848.72       GW BOUNDARY FLOW =            730.93
                WELLS =         214782.51                  WELLS =            526.91

   INFLOWS - OUTFLOWS =        2817144.97     INFLOWS - OUTFLOWS =        -152193.28
             --------                                   --------

 TOTAL STORAGE CHANGE =        2819894.86         STORAGE CHANGE =        -152187.78
       --------------                             --------------
         LAND SURFACE =        2798016.21           LAND SURFACE =        -227931.21
            SOIL ZONE =        2931808.15              SOIL ZONE =          76103.94
     UNSATURATED ZONE =       -1775110.98       UNSATURATED ZONE =           7214.02
       SATURATED ZONE =       -1134818.52         SATURATED ZONE =          -7574.52

 OVERALL BUDGET ERROR =          -2749.89           BUDGET ERROR =             -5.50


  PERCENT DISCREPANCY =             -0.02    PERCENT DISCREPANCY =             -0.00



1
 SUMMARY VOLUMETRIC BUDGET FOR GSFLOW 
 DATE: 03 17 1981              CUMULATIVE TIME STEP:     168
 MODFLOW STRESS PERIOD      2     CURRENT TIME STEP:     168     ITERATIONS:      12

 -----------------------------------------------------------------------------------

   CUMULATIVE VOLUMES               L**3   RATES FOR THIS TIME STEP           L**3/T
   ------------------                      ------------------------

                                     IN                                         IN
                                     --                                         --
        PRECIPITATION =        1.1499D+07          PRECIPITATION =                  
           STREAMFLOW =                               STREAMFLOW =                  
     GW BOUNDARY FLOW =                         GW BOUNDARY FLOW =                  
                WELLS =           2778.09                  WELLS =             26.63


                                    OUT                                        OUT
                                    ---                                        ---
   EVAPOTRANSPIRATION =        4676231.50     EVAPOTRANSPIRATION =          29980.50
           STREAMFLOW =        4092267.71             STREAMFLOW =          32622.42
     GW BOUNDARY FLOW =         121959.99       GW BOUNDARY FLOW =            728.59
                WELLS =         218441.49                  WELLS =            519.60

   INFLOWS - OUTFLOWS =        2393277.13     INFLOWS - OUTFLOWS =         -63824.48
             --------                                   --------

 TOTAL STORAGE CHANGE =        2396052.57         STORAGE CHANGE =         -63821.73
       --------------                             --------------
         LAND SURFACE =        2656607.82           LAND SURFACE =         -29709.91
            SOIL ZONE =        2681428.57              SOIL ZONE =         -25295.82
     UNSATURATED ZONE =       -1743031.53       UNSATURATED ZONE =            865.26
       SATURATED ZONE =       -1198952.29         SATURATED ZONE =          -9681.26

 OVERALL BUDGET ERROR =          -2775.44           BUDGET ERROR =             -2.75


  PERCENT DISCREPANCY =             -0.02    PERCENT DISCREPANCY =             -0.00



1
 SUMMARY VOLUMETRIC BUDGET FOR GSFLOW 
 DATE: 03 24 1981              CUMULATIVE TIME STEP:     175
 MODFLOW STRESS PERIOD      2     CURRENT TIME STEP:     175     ITERATIONS:      12

 -----------------------------------------------------------------------------------

   CUMULATIVE VOLUMES               L**3   RATES FOR THIS TIME STEP           L**3/T
   ------------------                      ------------------------

                                     IN                                         IN
                                     --                                         --
        PRECIPITATION =        1.2888D+07          PRECIPITATION =                  
           STREAMFLOW =                               STREAMFLOW =                  
     GW BOUNDARY FLOW =                         GW BOUNDARY FLOW =                  
                WELLS =           2946.81                  WELLS =             24.39


                                    OUT                                        OUT
                                    ---                                        ---
   EVAPOTRANSPIRATION =        4923694.37     EVAPOTRANSPIRATION =          70526.45
           STREAMFLOW =        4298201.15             STREAMFLOW =          34735.87
     GW BOUNDARY FLOW =         127053.71       GW BOUNDARY FLOW =            727.59
                WELLS =         223833.79                  WELLS =            949.69

   INFLOWS - OUTFLOWS =        3317854.48     INFLOWS - OUTFLOWS =        -106915.22
             --------                                   --------

 TOTAL STORAGE CHANGE =        3320646.27         STORAGE CHANGE =        -106912.35
       --------------                             --------------
         LAND SURFACE =        3793926.66           LAND SURFACE =         -90717.36
            SOIL ZONE =        2551193.04              SOIL ZONE =          -4198.86
     UNSATURATED ZONE =       -1756223.03       UNSATURATED ZONE =          -2310.75
       SATURATED ZONE =       -1268250.41         SATURATED ZONE =          -9685.38

 OVERALL BUDGET ERROR =          -2791.79           BUDGET ERROR =             -2.86


  PERCENT DISCREPANCY =             -0.02    PERCENT DISCREPANCY =             -0.00



1
 SUMMARY VOLUMETRIC BUDGET FOR GSFLOW 
 DATE: 03 31 1981              CUMULATIVE TIME STEP:     182
 MODFLOW STRESS PERIOD      2     CURRENT TIME STEP:     182     ITERATIONS:      12

 -----------------------------------------------------------------------------------

   CUMULATIVE VOLUMES               L**3   RATES FOR THIS TIME STEP           L**3/T
   ------------------                      ------------------------

                                     IN                                         IN
                                     --                                         --
        PRECIPITATION =        1.4484D+07          PRECIPITATION =                  
           STREAMFLOW =                               STREAMFLOW =                  
     GW BOUNDARY FLOW =                         GW BOUNDARY FLOW =                  
                WELLS =           3116.05                  WELLS =             24.01


                                    OUT                                        OUT
                                    ---                                        ---
   EVAPOTRANSPIRATION =        5197381.10     EVAPOTRANSPIRATION =          24457.83
           STREAMFLOW =        4688573.71             STREAMFLOW =          39422.41
     GW BOUNDARY FLOW =         132160.68       GW BOUNDARY FLOW =            729.11
                WELLS =         230398.58                  WELLS =            929.70

   INFLOWS - OUTFLOWS =        4238179.50     INFLOWS - OUTFLOWS =         -65515.04
             --------                                   --------

 TOTAL STORAGE CHANGE =        4240987.89         STORAGE CHANGE =         -65512.97
       --------------                             --------------
         LAND SURFACE =        4615284.56           LAND SURFACE =         -25496.59
            SOIL ZONE =        2695177.01              SOIL ZONE =         -31578.67
     UNSATURATED ZONE =       -1735075.61       UNSATURATED ZONE =           1791.48
       SATURATED ZONE =       -1334398.07         SATURATED ZONE =         -10229.18

 OVERALL BUDGET ERROR =          -2808.39           BUDGET ERROR =             -2.06


  PERCENT DISCREPANCY =             -0.02    PERCENT DISCREPANCY =             -0.00



1
 SUMMARY VOLUMETRIC BUDGET FOR GSFLOW 
 DATE: 04 07 1981              CUMULATIVE TIME STEP:     189
 MODFLOW STRESS PERIOD      2     CURRENT TIME STEP:     189     ITERATIONS:      12

 -----------------------------------------------------------------------------------

   CUMULATIVE VOLUMES               L**3   RATES FOR THIS TIME STEP           L**3/T
   ------------------                      ------------------------

                                     IN                                         IN
                                     --                                         --
        PRECIPITATION =        1.4833D+07          PRECIPITATION =                  
           STREAMFLOW =                               STREAMFLOW =                  
     GW BOUNDARY FLOW =                         GW BOUNDARY FLOW =                  
                WELLS =           3282.61                  WELLS =             23.63


                                    OUT                                        OUT
                                    ---                                        ---
   EVAPOTRANSPIRATION =        5779304.78     EVAPOTRANSPIRATION =         124525.83
           STREAMFLOW =        5161300.38             STREAMFLOW =          92754.74
     GW BOUNDARY FLOW =         137272.22       GW BOUNDARY FLOW =            732.24
                WELLS =         236843.53                  WELLS =            914.60

   INFLOWS - OUTFLOWS =        3521256.12     INFLOWS - OUTFLOWS =        -218903.78
             --------                                   --------

 TOTAL STORAGE CHANGE =        3524083.28         STORAGE CHANGE =        -218900.86
       --------------                             --------------
         LAND SURFACE =        3787368.75           LAND SURFACE =        -259971.70
            SOIL ZONE =        2838918.33              SOIL ZONE =          40957.77
     UNSATURATED ZONE =       -1704218.89       UNSATURATED ZONE =           8671.21
       SATURATED ZONE =       -1397984.92         SATURATED ZONE =          -8558.14

 OVERALL BUDGET ERROR =          -2827.15           BUDGET ERROR =             -2.92


  PERCENT DISCREPANCY =             -0.02    PERCENT DISCREPANCY =             -0.00



1
 SUMMARY VOLUMETRIC BUDGET FOR GSFLOW 
 DATE: 04 14 1981              CUMULATIVE TIME STEP:     196
 MODFLOW STRESS PERIOD      2     CURRENT TIME STEP:     196     ITERATIONS:      12

 -----------------------------------------------------------------------------------

   CUMULATIVE VOLUMES               L**3   RATES FOR THIS TIME STEP           L**3/T
   ------------------                      ------------------------

                                     IN                                         IN
                                     --                                         --
        PRECIPITATION =        1.4833D+07          PRECIPITATION =                  
           STREAMFLOW =                               STREAMFLOW =                  
     GW BOUNDARY FLOW =                         GW BOUNDARY FLOW =                  
                WELLS =           3443.34                  WELLS =             22.82


                                    OUT                                        OUT
                                    ---                                        ---
   EVAPOTRANSPIRATION =        6588753.65     EVAPOTRANSPIRATION =         170582.13
           STREAMFLOW =        5735825.91             STREAMFLOW =          87813.39
     GW BOUNDARY FLOW =         142395.87       GW BOUNDARY FLOW =            731.93
                WELLS =         244498.43                  WELLS =           1327.32

   INFLOWS - OUTFLOWS =        2124663.90     INFLOWS - OUTFLOWS =        -260431.95
             --------                                   --------

 TOTAL STORAGE CHANGE =        2127509.70         STORAGE CHANGE =        -260429.57
       --------------                             --------------
         LAND SURFACE =        2422062.72           LAND SURFACE =        -260642.87
            SOIL ZONE =        2816737.12              SOIL ZONE =            865.61
     UNSATURATED ZONE =       -1649648.19       UNSATURATED ZONE =           8182.23
       SATURATED ZONE =       -1461641.95         SATURATED ZONE =          -8834.54

 OVERALL BUDGET ERROR =          -2845.80           BUDGET ERROR =             -2.39


  PERCENT DISCREPANCY =             -0.02    PERCENT DISCREPANCY =             -0.00



1
 SUMMARY VOLUMETRIC BUDGET FOR GSFLOW 
 DATE: 04 21 1981              CUMULATIVE TIME STEP:     203
 MODFLOW STRESS PERIOD      2     CURRENT TIME STEP:     203     ITERATIONS:      12

 -----------------------------------------------------------------------------------

   CUMULATIVE VOLUMES               L**3   RATES FOR THIS TIME STEP           L**3/T
   ------------------                      ------------------------

                                     IN                                         IN
                                     --                                         --
        PRECIPITATION =        1.4976D+07          PRECIPITATION =                  
           STREAMFLOW =                               STREAMFLOW =                  
     GW BOUNDARY FLOW =                         GW BOUNDARY FLOW =                  
                WELLS =           3603.93                  WELLS =             23.01


                                    OUT                                        OUT
                                    ---                                        ---
   EVAPOTRANSPIRATION =        7565187.59     EVAPOTRANSPIRATION =         164397.94
           STREAMFLOW =        6228011.08             STREAMFLOW =          70500.49
     GW BOUNDARY FLOW =         147513.08       GW BOUNDARY FLOW =            730.43
                WELLS =         253659.34                  WELLS =           1296.26

   INFLOWS - OUTFLOWS =         785544.50     INFLOWS - OUTFLOWS =        -236902.11
             --------                                   --------

 TOTAL STORAGE CHANGE =         788402.23         STORAGE CHANGE =        -236900.39
       --------------                             --------------
         LAND SURFACE =        1308762.12           LAND SURFACE =        -136386.40
            SOIL ZONE =        2620244.62              SOIL ZONE =         -95368.36
     UNSATURATED ZONE =       -1611861.72       UNSATURATED ZONE =           3890.74
       SATURATED ZONE =       -1528742.79         SATURATED ZONE =          -9036.37

 OVERALL BUDGET ERROR =          -2857.73           BUDGET ERROR =             -1.72


  PERCENT DISCREPANCY =             -0.02    PERCENT DISCREPANCY =             -0.00



1
 SUMMARY VOLUMETRIC BUDGET FOR GSFLOW 
 DATE: 04 28 1981              CUMULATIVE TIME STEP:     210
 MODFLOW STRESS PERIOD      2     CURRENT TIME STEP:     210     ITERATIONS:      12

 -----------------------------------------------------------------------------------

   CUMULATIVE VOLUMES               L**3   RATES FOR THIS TIME STEP           L**3/T
   ------------------                      ------------------------

                                     IN                                         IN
                                     --                                         --
        PRECIPITATION =        1.5195D+07          PRECIPITATION =                  
           STREAMFLOW =                               STREAMFLOW =                  
     GW BOUNDARY FLOW =                         GW BOUNDARY FLOW =                  
                WELLS =           3765.61                  WELLS =             23.15


                                    OUT                                        OUT
                                    ---                                        ---
   EVAPOTRANSPIRATION =        8830775.89     EVAPOTRANSPIRATION =         208265.70
           STREAMFLOW =        6537517.73             STREAMFLOW =          39233.29
     GW BOUNDARY FLOW =         152614.34       GW BOUNDARY FLOW =            727.63
                WELLS =         262636.81                  WELLS =           1273.06

   INFLOWS - OUTFLOWS =        -585160.01     INFLOWS - OUTFLOWS =        -249476.52
             --------                                   --------

 TOTAL STORAGE CHANGE =        -582286.86         STORAGE CHANGE =        -249474.08
       --------------                             --------------
         LAND SURFACE =         607645.11           LAND SURFACE =         -76321.96
            SOIL ZONE =        2022933.80              SOIL ZONE =        -162036.34
     UNSATURATED ZONE =       -1610382.36       UNSATURATED ZONE =           -859.18
       SATURATED ZONE =       -1602483.41         SATURATED ZONE =         -10256.59

 OVERALL BUDGET ERROR =          -2873.15           BUDGET ERROR =             -2.44


  PERCENT DISCREPANCY =             -0.02    PERCENT DISCREPANCY =             -0.00



1
 SUMMARY VOLUMETRIC BUDGET FOR GSFLOW 
 DATE: 05 05 1981              CUMULATIVE TIME STEP:     217
 MODFLOW STRESS PERIOD      2     CURRENT TIME STEP:     217     ITERATIONS:      12

 -----------------------------------------------------------------------------------

   CUMULATIVE VOLUMES               L**3   RATES FOR THIS TIME STEP           L**3/T
   ------------------                      ------------------------

                                     IN                                         IN
                                     --                                         --
        PRECIPITATION =        1.5195D+07          PRECIPITATION =                  
           STREAMFLOW =                               STREAMFLOW =                  
     GW BOUNDARY FLOW =                         GW BOUNDARY FLOW =                  
                WELLS =           3887.29                  WELLS =             12.46


                                    OUT                                        OUT
                                    ---                                        ---
   EVAPOTRANSPIRATION =        9778582.98     EVAPOTRANSPIRATION =          52513.25
           STREAMFLOW =        6677231.40             STREAMFLOW =          11221.56
     GW BOUNDARY FLOW =         157695.25       GW BOUNDARY FLOW =            724.42
                WELLS =         270032.98                  WELLS =            778.45

   INFLOWS - OUTFLOWS =       -1685036.16     INFLOWS - OUTFLOWS =         -65225.22
             --------                                   --------

 TOTAL STORAGE CHANGE =       -1682137.65         STORAGE CHANGE =         -65221.25
       --------------                             --------------
         LAND SURFACE =         298688.92           LAND SURFACE =          -6179.61
            SOIL ZONE =        1344587.50              SOIL ZONE =         -41330.59
     UNSATURATED ZONE =       -1643625.07       UNSATURATED ZONE =          -6345.20
       SATURATED ZONE =       -1681789.00         SATURATED ZONE =         -11365.85

 OVERALL BUDGET ERROR =          -2898.52           BUDGET ERROR =             -3.97


  PERCENT DISCREPANCY =             -0.02    PERCENT DISCREPANCY =             -0.01



1
 SUMMARY VOLUMETRIC BUDGET FOR GSFLOW 
 DATE: 05 12 1981              CUMULATIVE TIME STEP:     224
 MODFLOW STRESS PERIOD      2     CURRENT TIME STEP:     224     ITERATIONS:      12

 -----------------------------------------------------------------------------------

   CUMULATIVE VOLUMES               L**3   RATES FOR THIS TIME STEP           L**3/T
   ------------------                      ------------------------

                                     IN                                         IN
                                     --                                         --
        PRECIPITATION =        1.5195D+07          PRECIPITATION =                  
           STREAMFLOW =                               STREAMFLOW =                  
     GW BOUNDARY FLOW =                         GW BOUNDARY FLOW =                  
                WELLS =           3976.59                  WELLS =             12.42


                                    OUT                                        OUT
                                    ---                                        ---
   EVAPOTRANSPIRATION =        1.0283D+07     EVAPOTRANSPIRATION =          87070.32
           STREAMFLOW =        6748228.98             STREAMFLOW =          10449.48
     GW BOUNDARY FLOW =         162760.52       GW BOUNDARY FLOW =            723.34
                WELLS =         275434.15                  WELLS =            766.24

   INFLOWS - OUTFLOWS =       -2271170.08     INFLOWS - OUTFLOWS =         -98996.96
             --------                                   --------

 TOTAL STORAGE CHANGE =       -2268242.80         STORAGE CHANGE =         -98992.80
       --------------                             --------------
         LAND SURFACE =         171434.19           LAND SURFACE =         -24660.69
            SOIL ZONE =        1011035.48              SOIL ZONE =         -56487.66
     UNSATURATED ZONE =       -1689536.01       UNSATURATED ZONE =          -6292.29
       SATURATED ZONE =       -1761176.46         SATURATED ZONE =         -11552.16

 OVERALL BUDGET ERROR =          -2927.29           BUDGET ERROR =             -4.16


  PERCENT DISCREPANCY =             -0.02    PERCENT DISCREPANCY =             -0.00



1
 SUMMARY VOLUMETRIC BUDGET FOR GSFLOW 
 DATE: 05 19 1981              CUMULATIVE TIME STEP:     231
 MODFLOW STRESS PERIOD      2     CURRENT TIME STEP:     231     ITERATIONS:      12

 -----------------------------------------------------------------------------------

   CUMULATIVE VOLUMES               L**3   RATES FOR THIS TIME STEP           L**3/T
   ------------------                      ------------------------

                                     IN                                         IN
                                     --                                         --
        PRECIPITATION =        1.6217D+07          PRECIPITATION =         339612.76
           STREAMFLOW =                               STREAMFLOW =                  
     GW BOUNDARY FLOW =                         GW BOUNDARY FLOW =                  
                WELLS =           4076.36                  WELLS =             15.47


                                    OUT                                        OUT
                                    ---                                        ---
   EVAPOTRANSPIRATION =        1.0618D+07     EVAPOTRANSPIRATION =          28291.29
           STREAMFLOW =        6837206.92             STREAMFLOW =          16215.85
     GW BOUNDARY FLOW =         167823.95       GW BOUNDARY FLOW =            723.81
                WELLS =         279324.05                  WELLS =            399.55

   INFLOWS - OUTFLOWS =       -1681807.08     INFLOWS - OUTFLOWS =         293997.74
             --------                                   --------

 TOTAL STORAGE CHANGE =       -1678849.95         STORAGE CHANGE =         294001.80
       --------------                             --------------
         LAND SURFACE =         343346.52           LAND SURFACE =         162072.08
            SOIL ZONE =        1549198.73              SOIL ZONE =         148377.14
     UNSATURATED ZONE =       -1730153.14       UNSATURATED ZONE =          -5031.69
       SATURATED ZONE =       -1841242.06         SATURATED ZONE =         -11415.73

 OVERALL BUDGET ERROR =          -2957.14           BUDGET ERROR =             -4.06


  PERCENT DISCREPANCY =             -0.02    PERCENT DISCREPANCY =             -0.00



1
 SUMMARY VOLUMETRIC BUDGET FOR GSFLOW 
 DATE: 05 26 1981              CUMULATIVE TIME STEP:     238
 MODFLOW STRESS PERIOD      2     CURRENT TIME STEP:     238     ITERATIONS:      12

 -----------------------------------------------------------------------------------

   CUMULATIVE VOLUMES               L**3   RATES FOR THIS TIME STEP           L**3/T
   ------------------                      ------------------------

                                     IN                                         IN
                                     --                                         --
        PRECIPITATION =        1.6608D+07          PRECIPITATION =         171546.23
           STREAMFLOW =                               STREAMFLOW =                  
     GW BOUNDARY FLOW =                         GW BOUNDARY FLOW =                  
                WELLS =           4153.99                  WELLS =              5.98


                                    OUT                                        OUT
                                    ---                                        ---
   EVAPOTRANSPIRATION =        1.1312D+07     EVAPOTRANSPIRATION =         110479.25
           STREAMFLOW =        6944434.50             STREAMFLOW =          17759.64
     GW BOUNDARY FLOW =         172889.67       GW BOUNDARY FLOW =            723.76
                WELLS =         283570.92                  WELLS =            920.25

   INFLOWS - OUTFLOWS =       -2101132.20     INFLOWS - OUTFLOWS =          41669.32
             --------                                   --------

 TOTAL STORAGE CHANGE =       -2098146.73         STORAGE CHANGE =          41673.37
       --------------                             --------------
         LAND SURFACE =         104539.10           LAND SURFACE =          -4685.06
            SOIL ZONE =        1482538.88              SOIL ZONE =          62744.88
     UNSATURATED ZONE =       -1761360.20       UNSATURATED ZONE =          -4266.65
       SATURATED ZONE =       -1923864.51         SATURATED ZONE =         -12119.81

 OVERALL BUDGET ERROR =          -2985.47           BUDGET ERROR =             -4.05


  PERCENT DISCREPANCY =             -0.02    PERCENT DISCREPANCY =             -0.00



1
 SUMMARY VOLUMETRIC BUDGET FOR GSFLOW 
 DATE: 06 02 1981              CUMULATIVE TIME STEP:     245
 MODFLOW STRESS PERIOD      2     CURRENT TIME STEP:     245     ITERATIONS:      12

 -----------------------------------------------------------------------------------

   CUMULATIVE VOLUMES               L**3   RATES FOR THIS TIME STEP           L**3/T
   ------------------                      ------------------------

                                     IN                                         IN
                                     --                                         --
        PRECIPITATION =        1.6690D+07          PRECIPITATION =                  
           STREAMFLOW =                               STREAMFLOW =                  
     GW BOUNDARY FLOW =                         GW BOUNDARY FLOW =                  
                WELLS =           4188.33                  WELLS =              4.16


                                    OUT                                        OUT
                                    ---                                        ---
   EVAPOTRANSPIRATION =        1.2069D+07     EVAPOTRANSPIRATION =          67897.66
           STREAMFLOW =        7019774.91             STREAMFLOW =           6960.98
     GW BOUNDARY FLOW =         177951.08       GW BOUNDARY FLOW =            722.34
                WELLS =         289897.86                  WELLS =            893.02

   INFLOWS - OUTFLOWS =       -2862434.25     INFLOWS - OUTFLOWS =         -76469.85
             --------                                   --------

 TOTAL STORAGE CHANGE =       -2859420.96         STORAGE CHANGE =         -76465.57
       --------------                             --------------
         LAND SURFACE =          25149.14           LAND SURFACE =          -3379.81
            SOIL ZONE =         925868.33              SOIL ZONE =         -53915.81
     UNSATURATED ZONE =       -1797200.18       UNSATURATED ZONE =          -6086.65
       SATURATED ZONE =       -2013238.26         SATURATED ZONE =         -13083.30

 OVERALL BUDGET ERROR =          -3013.29           BUDGET ERROR =             -4.27


  PERCENT DISCREPANCY =             -0.02    PERCENT DISCREPANCY =             -0.01



1
 SUMMARY VOLUMETRIC BUDGET FOR GSFLOW 
 DATE: 06 09 1981              CUMULATIVE TIME STEP:     252
 MODFLOW STRESS PERIOD      2     CURRENT TIME STEP:     252     ITERATIONS:      12

 -----------------------------------------------------------------------------------

   CUMULATIVE VOLUMES               L**3   RATES FOR THIS TIME STEP           L**3/T
   ------------------                      ------------------------

                                     IN                                         IN
                                     --                                         --
        PRECIPITATION =        1.6690D+07          PRECIPITATION =                  
           STREAMFLOW =                               STREAMFLOW =                  
     GW BOUNDARY FLOW =                         GW BOUNDARY FLOW =                  
[...]
   ------------------                      ------------------------

                                     IN                                         IN
                                     --                                         --
        PRECIPITATION =        1.2601D+08          PRECIPITATION =                  
           STREAMFLOW =                               STREAMFLOW =                  
     GW BOUNDARY FLOW =                         GW BOUNDARY FLOW =                  
                WELLS =          22922.55                  WELLS =             12.26


                                    OUT                                        OUT
                                    ---                                        ---
   EVAPOTRANSPIRATION =        5.9312D+07     EVAPOTRANSPIRATION =           5896.95
           STREAMFLOW =        6.2925D+07             STREAMFLOW =          16748.67
     GW BOUNDARY FLOW =         836305.04       GW BOUNDARY FLOW =            719.89
                WELLS =        1024228.00                  WELLS =            427.26

   INFLOWS - OUTFLOWS =        1930670.04     INFLOWS - OUTFLOWS =         -23780.50
             --------                                   --------

 TOTAL STORAGE CHANGE =        1934823.04         STORAGE CHANGE =         -23779.88
       --------------                             --------------
         LAND SURFACE =        1.0379D+07           LAND SURFACE =          -5896.95
            SOIL ZONE =        2481497.76              SOIL ZONE =          -8647.09
     UNSATURATED ZONE =         302034.66       UNSATURATED ZONE =           -717.70
       SATURATED ZONE =       -1.1228D+07         SATURATED ZONE =          -8518.14

 OVERALL BUDGET ERROR =          -4153.00           BUDGET ERROR =             -0.63


  PERCENT DISCREPANCY =             -0.00    PERCENT DISCREPANCY =             -0.00



1
 SUMMARY VOLUMETRIC BUDGET FOR GSFLOW 
 DATE: 12 06 1983              CUMULATIVE TIME STEP:    1162
 MODFLOW STRESS PERIOD      2     CURRENT TIME STEP:    1162     ITERATIONS:       8

 -----------------------------------------------------------------------------------

   CUMULATIVE VOLUMES               L**3   RATES FOR THIS TIME STEP           L**3/T
   ------------------                      ------------------------

                                     IN                                         IN
                                     --                                         --
        PRECIPITATION =        1.2771D+08          PRECIPITATION =                  
           STREAMFLOW =                               STREAMFLOW =                  
     GW BOUNDARY FLOW =                         GW BOUNDARY FLOW =                  
                WELLS =          23011.56                  WELLS =             23.92


                                    OUT                                        OUT
                                    ---                                        ---
   EVAPOTRANSPIRATION =        5.9378D+07     EVAPOTRANSPIRATION =           3262.97
           STREAMFLOW =        6.3032D+07             STREAMFLOW =          14426.94
     GW BOUNDARY FLOW =         841342.24       GW BOUNDARY FLOW =            719.46
                WELLS =        1028227.75                  WELLS =            933.43

   INFLOWS - OUTFLOWS =        3454217.20     INFLOWS - OUTFLOWS =         -19318.88
             --------                                   --------

 TOTAL STORAGE CHANGE =        3458372.33         STORAGE CHANGE =         -19318.58
       --------------                             --------------
         LAND SURFACE =        1.2019D+07           LAND SURFACE =          -3262.97
            SOIL ZONE =        2439683.75              SOIL ZONE =          -4428.01
     UNSATURATED ZONE =         289903.60       UNSATURATED ZONE =          -2336.01
       SATURATED ZONE =       -1.1290D+07         SATURATED ZONE =          -9291.58

 OVERALL BUDGET ERROR =          -4155.13           BUDGET ERROR =             -0.30


  PERCENT DISCREPANCY =             -0.00    PERCENT DISCREPANCY =             -0.00



1
 SUMMARY VOLUMETRIC BUDGET FOR GSFLOW 
 DATE: 12 13 1983              CUMULATIVE TIME STEP:    1169
 MODFLOW STRESS PERIOD      2     CURRENT TIME STEP:    1169     ITERATIONS:       8

 -----------------------------------------------------------------------------------

   CUMULATIVE VOLUMES               L**3   RATES FOR THIS TIME STEP           L**3/T
   ------------------                      ------------------------

                                     IN                                         IN
                                     --                                         --
        PRECIPITATION =        1.3066D+08          PRECIPITATION =          48887.43
           STREAMFLOW =                               STREAMFLOW =                  
     GW BOUNDARY FLOW =                         GW BOUNDARY FLOW =                  
                WELLS =          23184.31                  WELLS =             24.75


                                    OUT                                        OUT
                                    ---                                        ---
   EVAPOTRANSPIRATION =        5.9440D+07     EVAPOTRANSPIRATION =           7752.49
           STREAMFLOW =        6.3129D+07             STREAMFLOW =          13422.92
     GW BOUNDARY FLOW =         846376.83       GW BOUNDARY FLOW =            719.05
                WELLS =        1036379.82                  WELLS =           1329.97

   INFLOWS - OUTFLOWS =        6236842.23     INFLOWS - OUTFLOWS =          25687.74
             --------                                   --------

 TOTAL STORAGE CHANGE =        6241001.44         STORAGE CHANGE =          25688.59
       --------------                             --------------
         LAND SURFACE =        1.4911D+07           LAND SURFACE =          41134.93
            SOIL ZONE =        2418789.88              SOIL ZONE =          -2092.08
     UNSATURATED ZONE =         268381.52       UNSATURATED ZONE =          -3545.87
       SATURATED ZONE =       -1.1357D+07         SATURATED ZONE =          -9808.39

 OVERALL BUDGET ERROR =          -4159.22           BUDGET ERROR =             -0.85


  PERCENT DISCREPANCY =             -0.00    PERCENT DISCREPANCY =             -0.00



1
 SUMMARY VOLUMETRIC BUDGET FOR GSFLOW 
 DATE: 12 20 1983              CUMULATIVE TIME STEP:    1176
 MODFLOW STRESS PERIOD      2     CURRENT TIME STEP:    1176     ITERATIONS:       8

 -----------------------------------------------------------------------------------

   CUMULATIVE VOLUMES               L**3   RATES FOR THIS TIME STEP           L**3/T
   ------------------                      ------------------------

                                     IN                                         IN
                                     --                                         --
        PRECIPITATION =        1.3124D+08          PRECIPITATION =                  
           STREAMFLOW =                               STREAMFLOW =                  
     GW BOUNDARY FLOW =                         GW BOUNDARY FLOW =                  
                WELLS =          23357.14                  WELLS =             24.63


                                    OUT                                        OUT
                                    ---                                        ---
   EVAPOTRANSPIRATION =        5.9594D+07     EVAPOTRANSPIRATION =          22979.64
           STREAMFLOW =        6.3228D+07             STREAMFLOW =          13905.07
     GW BOUNDARY FLOW =         851409.59       GW BOUNDARY FLOW =            718.90
                WELLS =        1045530.76                  WELLS =           1291.93

   INFLOWS - OUTFLOWS =        6542805.74     INFLOWS - OUTFLOWS =         -38870.91
             --------                                   --------

 TOTAL STORAGE CHANGE =        6546972.84         STORAGE CHANGE =         -38869.33
       --------------                             --------------
         LAND SURFACE =        1.5309D+07           LAND SURFACE =         -23386.49
            SOIL ZONE =        2421295.85              SOIL ZONE =          -1851.08
     UNSATURATED ZONE =         242882.93       UNSATURATED ZONE =          -3823.21
       SATURATED ZONE =       -1.1426D+07         SATURATED ZONE =          -9808.54

 OVERALL BUDGET ERROR =          -4167.10           BUDGET ERROR =             -1.59


  PERCENT DISCREPANCY =             -0.00    PERCENT DISCREPANCY =             -0.00



1
 SUMMARY VOLUMETRIC BUDGET FOR GSFLOW 
 DATE: 12 27 1983              CUMULATIVE TIME STEP:    1183
 MODFLOW STRESS PERIOD      2     CURRENT TIME STEP:    1183     ITERATIONS:       8

 -----------------------------------------------------------------------------------

   CUMULATIVE VOLUMES               L**3   RATES FOR THIS TIME STEP           L**3/T
   ------------------                      ------------------------

                                     IN                                         IN
                                     --                                         --
        PRECIPITATION =        1.3494D+08          PRECIPITATION =         350323.53
           STREAMFLOW =                               STREAMFLOW =                  
     GW BOUNDARY FLOW =                         GW BOUNDARY FLOW =                  
                WELLS =          23532.56                  WELLS =             25.97


                                    OUT                                        OUT
                                    ---                                        ---
   EVAPOTRANSPIRATION =        5.9647D+07     EVAPOTRANSPIRATION =           9465.25
           STREAMFLOW =        6.3321D+07             STREAMFLOW =          13066.41
     GW BOUNDARY FLOW =         856440.81       GW BOUNDARY FLOW =            718.62
                WELLS =        1053339.01                  WELLS =            892.97

   INFLOWS - OUTFLOWS =        1.0083D+07     INFLOWS - OUTFLOWS =         326206.25
             --------                                   --------

 TOTAL STORAGE CHANGE =        1.0088D+07         STORAGE CHANGE =         326207.76
       --------------                             --------------
         LAND SURFACE =        1.8955D+07           LAND SURFACE =         340858.28
            SOIL ZONE =        2411284.35              SOIL ZONE =           -998.19
     UNSATURATED ZONE =         215152.65       UNSATURATED ZONE =          -4046.75
       SATURATED ZONE =       -1.1494D+07         SATURATED ZONE =          -9605.58

 OVERALL BUDGET ERROR =          -4177.55           BUDGET ERROR =             -1.51


  PERCENT DISCREPANCY =             -0.00    PERCENT DISCREPANCY =             -0.00



1
 SUMMARY VOLUMETRIC BUDGET FOR GSFLOW 
 DATE: 01 03 1984              CUMULATIVE TIME STEP:    1190
 MODFLOW STRESS PERIOD      2     CURRENT TIME STEP:    1190     ITERATIONS:       9

 -----------------------------------------------------------------------------------

   CUMULATIVE VOLUMES               L**3   RATES FOR THIS TIME STEP           L**3/T
   ------------------                      ------------------------

                                     IN                                         IN
                                     --                                         --
        PRECIPITATION =        1.3595D+08          PRECIPITATION =                  
           STREAMFLOW =                               STREAMFLOW =                  
     GW BOUNDARY FLOW =                         GW BOUNDARY FLOW =                  
                WELLS =          23711.27                  WELLS =             25.13


                                    OUT                                        OUT
                                    ---                                        ---
   EVAPOTRANSPIRATION =        5.9781D+07     EVAPOTRANSPIRATION =          25291.26
           STREAMFLOW =        6.3425D+07             STREAMFLOW =          15010.62
     GW BOUNDARY FLOW =         861471.64       GW BOUNDARY FLOW =            718.70
                WELLS =        1059519.52                  WELLS =            875.89

   INFLOWS - OUTFLOWS =        1.0850D+07     INFLOWS - OUTFLOWS =         -41871.34
             --------                                   --------

 TOTAL STORAGE CHANGE =        1.0854D+07         STORAGE CHANGE =         -41869.98
       --------------                             --------------
         LAND SURFACE =        1.9788D+07           LAND SURFACE =         -28509.16
            SOIL ZONE =        2434068.97              SOIL ZONE =           -974.37
     UNSATURATED ZONE =         192104.69       UNSATURATED ZONE =          -2859.78
       SATURATED ZONE =       -1.1561D+07         SATURATED ZONE =          -9526.67

 OVERALL BUDGET ERROR =          -4187.58           BUDGET ERROR =             -1.35


  PERCENT DISCREPANCY =             -0.00    PERCENT DISCREPANCY =             -0.00



1
 SUMMARY VOLUMETRIC BUDGET FOR GSFLOW 
 DATE: 01 10 1984              CUMULATIVE TIME STEP:    1197
 MODFLOW STRESS PERIOD      2     CURRENT TIME STEP:    1197     ITERATIONS:       8

 -----------------------------------------------------------------------------------

   CUMULATIVE VOLUMES               L**3   RATES FOR THIS TIME STEP           L**3/T
   ------------------                      ------------------------

                                     IN                                         IN
                                     --                                         --
        PRECIPITATION =        1.3595D+08          PRECIPITATION =                  
           STREAMFLOW =                               STREAMFLOW =                  
     GW BOUNDARY FLOW =                         GW BOUNDARY FLOW =                  
                WELLS =          23904.10                  WELLS =             29.62


                                    OUT                                        OUT
                                    ---                                        ---
   EVAPOTRANSPIRATION =        6.0052D+07     EVAPOTRANSPIRATION =          23779.36
           STREAMFLOW =        6.3669D+07             STREAMFLOW =          37485.55
     GW BOUNDARY FLOW =         866515.09       GW BOUNDARY FLOW =            721.57
                WELLS =        1064164.65                  WELLS =            506.88

   INFLOWS - OUTFLOWS =        1.0326D+07     INFLOWS - OUTFLOWS =         -62463.75
             --------                                   --------

 TOTAL STORAGE CHANGE =        1.0330D+07         STORAGE CHANGE =         -62462.77
       --------------                             --------------
         LAND SURFACE =        1.9022D+07           LAND SURFACE =         -34002.61
            SOIL ZONE =        2704660.61              SOIL ZONE =         -27331.75
     UNSATURATED ZONE =         221478.15       UNSATURATED ZONE =           7354.04
       SATURATED ZONE =       -1.1618D+07         SATURATED ZONE =          -8482.44

 OVERALL BUDGET ERROR =          -4197.64           BUDGET ERROR =             -0.98


  PERCENT DISCREPANCY =             -0.00    PERCENT DISCREPANCY =             -0.00



1
 SUMMARY VOLUMETRIC BUDGET FOR GSFLOW 
 DATE: 01 17 1984              CUMULATIVE TIME STEP:    1204
 MODFLOW STRESS PERIOD      2     CURRENT TIME STEP:    1204     ITERATIONS:       9

 -----------------------------------------------------------------------------------

   CUMULATIVE VOLUMES               L**3   RATES FOR THIS TIME STEP           L**3/T
   ------------------                      ------------------------

                                     IN                                         IN
                                     --                                         --
        PRECIPITATION =        1.3620D+08          PRECIPITATION =                  
           STREAMFLOW =                               STREAMFLOW =                  
     GW BOUNDARY FLOW =                         GW BOUNDARY FLOW =                  
                WELLS =          24105.81                  WELLS =             28.16


                                    OUT                                        OUT
                                    ---                                        ---
   EVAPOTRANSPIRATION =        6.0093D+07     EVAPOTRANSPIRATION =           1907.77
           STREAMFLOW =        6.3845D+07             STREAMFLOW =          20078.88
     GW BOUNDARY FLOW =         871558.10       GW BOUNDARY FLOW =            719.64
                WELLS =        1067695.75                  WELLS =            502.64

   INFLOWS - OUTFLOWS =        1.0346D+07     INFLOWS - OUTFLOWS =         -23180.77
             --------                                   --------

 TOTAL STORAGE CHANGE =        1.0350D+07         STORAGE CHANGE =         -23180.79
       --------------                             --------------
         LAND SURFACE =        1.9228D+07           LAND SURFACE =          -1907.77
            SOIL ZONE =        2549924.40              SOIL ZONE =         -15024.89
     UNSATURATED ZONE =         252649.20       UNSATURATED ZONE =           2601.46
       SATURATED ZONE =       -1.1680D+07         SATURATED ZONE =          -8849.59

 OVERALL BUDGET ERROR =          -4200.21           BUDGET ERROR =              0.03


  PERCENT DISCREPANCY =             -0.00    PERCENT DISCREPANCY =              0.00



1
 SUMMARY VOLUMETRIC BUDGET FOR GSFLOW 
 DATE: 01 24 1984              CUMULATIVE TIME STEP:    1211
 MODFLOW STRESS PERIOD      2     CURRENT TIME STEP:    1211     ITERATIONS:       9

 -----------------------------------------------------------------------------------

   CUMULATIVE VOLUMES               L**3   RATES FOR THIS TIME STEP           L**3/T
   ------------------                      ------------------------

                                     IN                                         IN
                                     --                                         --
        PRECIPITATION =        1.3620D+08          PRECIPITATION =                  
           STREAMFLOW =                               STREAMFLOW =                  
     GW BOUNDARY FLOW =                         GW BOUNDARY FLOW =                  
                WELLS =          24291.34                  WELLS =             24.03


                                    OUT                                        OUT
                                    ---                                        ---
   EVAPOTRANSPIRATION =        6.0220D+07     EVAPOTRANSPIRATION =          38649.60
           STREAMFLOW =        6.3965D+07             STREAMFLOW =          15572.18
     GW BOUNDARY FLOW =         876591.45       GW BOUNDARY FLOW =            718.74
                WELLS =        1071200.64                  WELLS =            499.75

   INFLOWS - OUTFLOWS =        1.0091D+07     INFLOWS - OUTFLOWS =         -55416.25
             --------                                   --------

 TOTAL STORAGE CHANGE =        1.0095D+07         STORAGE CHANGE =         -55416.37
       --------------                             --------------
         LAND SURFACE =        1.9101D+07           LAND SURFACE =         -38649.60
            SOIL ZONE =        2478321.59              SOIL ZONE =          -7567.19
     UNSATURATED ZONE =         258407.55       UNSATURATED ZONE =           -243.44
       SATURATED ZONE =       -1.1742D+07         SATURATED ZONE =          -8956.14

 OVERALL BUDGET ERROR =          -4198.82           BUDGET ERROR =              0.12


  PERCENT DISCREPANCY =             -0.00    PERCENT DISCREPANCY =              0.00



