1
 SUMMARY VOLUMETRIC BUDGET FOR GSFLOW 
 DATE: 11 24 1983              CUMULATIVE TIME STEP:    1150
 MODFLOW STRESS PERIOD      2     CURRENT TIME STEP:    1149     ITERATIONS:       8

 -----------------------------------------------------------------------------------

   CUMULATIVE VOLUMES               L**3   RATES FOR THIS TIME STEP           L**3/T
   ------------------                      ------------------------

                                     IN                                         IN
                                     --                                         --
        PRECIPITATION =        3194686.24          PRECIPITATION =        1091405.11
           STREAMFLOW =                               STREAMFLOW =                  
     GW BOUNDARY FLOW =                         GW BOUNDARY FLOW =                  
                WELLS =             98.06                  WELLS =             13.50


                                    OUT                                        OUT
                                    ---                                        ---
   EVAPOTRANSPIRATION =          47977.26     EVAPOTRANSPIRATION =          11574.23
           STREAMFLOW =         192971.52             STREAMFLOW =          20888.18
     GW BOUNDARY FLOW =           5052.91       GW BOUNDARY FLOW =            720.83
                WELLS =           3127.14                  WELLS =            438.71

   INFLOWS - OUTFLOWS =        2945655.47     INFLOWS - OUTFLOWS =        1057796.67
             --------                                   --------

 TOTAL STORAGE CHANGE =        2945663.89         STORAGE CHANGE =        1057797.32
       --------------                             --------------
         LAND SURFACE =        3144727.41           LAND SURFACE =        1079830.88
            SOIL ZONE =        -162286.47              SOIL ZONE =         -15013.26
     UNSATURATED ZONE =          21923.69       UNSATURATED ZONE =           1490.29
       SATURATED ZONE =         -58700.74         SATURATED ZONE =          -8510.58

 OVERALL BUDGET ERROR =             -8.43           BUDGET ERROR =             -0.65


  PERCENT DISCREPANCY =             -0.00    PERCENT DISCREPANCY =             -0.00



