1
 SUMMARY VOLUMETRIC BUDGET FOR GSFLOW 
 DATE: 10 07 1980              CUMULATIVE TIME STEP:       7
 MODFLOW STRESS PERIOD      2     CURRENT TIME STEP:       7     ITERATIONS:       6

 -----------------------------------------------------------------------------------

   CUMULATIVE VOLUMES               L**3   RATES FOR THIS TIME STEP           L**3/T
   ------------------                      ------------------------

                                     IN                                         IN
                                     --                                         --
        PRECIPITATION =                            PRECIPITATION =                  
           STREAMFLOW =                               STREAMFLOW =                  
     GW BOUNDARY FLOW =                         GW BOUNDARY FLOW =                  


                                    OUT                                        OUT
                                    ---                                        ---
   EVAPOTRANSPIRATION =          65413.20     EVAPOTRANSPIRATION =           9161.73
           STREAMFLOW =          42957.50             STREAMFLOW =           6065.76
     GW BOUNDARY FLOW =           4541.44       GW BOUNDARY FLOW =            648.70

   INFLOWS - OUTFLOWS =        -112912.14     INFLOWS - OUTFLOWS =         -15876.19
             --------                                   --------

 TOTAL STORAGE CHANGE =        -112516.53         STORAGE CHANGE =         -15815.61
       --------------                             --------------
         LAND SURFACE =                             LAND SURFACE =                  
            SOIL ZONE =          45102.78              SOIL ZONE =           6534.58
     UNSATURATED ZONE =        -144779.04       UNSATURATED ZONE =         -20361.32
       SATURATED ZONE =         -12840.27         SATURATED ZONE =          -1988.86

 OVERALL BUDGET ERROR =           -395.61           BUDGET ERROR =            -60.59


  PERCENT DISCREPANCY =             -0.35    PERCENT DISCREPANCY =             -0.38



1
 SUMMARY VOLUMETRIC BUDGET FOR GSFLOW 
 DATE: 10 14 1980              CUMULATIVE TIME STEP:      14
 MODFLOW STRESS PERIOD      2     CURRENT TIME STEP:      14     ITERATIONS:       6

 -----------------------------------------------------------------------------------

   CUMULATIVE VOLUMES               L**3   RATES FOR THIS TIME STEP           L**3/T
   ------------------                      ------------------------

                                     IN                                         IN
                                     --                                         --
        PRECIPITATION =         650779.83          PRECIPITATION =         164754.40
           STREAMFLOW =                               STREAMFLOW =                  
     GW BOUNDARY FLOW =                         GW BOUNDARY FLOW =                  


                                    OUT                                        OUT
                                    ---                                        ---
   EVAPOTRANSPIRATION =         161538.47     EVAPOTRANSPIRATION =          11486.75
           STREAMFLOW =          94453.31             STREAMFLOW =           7710.02
     GW BOUNDARY FLOW =           9082.95       GW BOUNDARY FLOW =            648.93

   INFLOWS - OUTFLOWS =         385705.10     INFLOWS - OUTFLOWS =         144908.70
             --------                                   --------

 TOTAL STORAGE CHANGE =         386545.46         STORAGE CHANGE =         144970.98
       --------------                             --------------
         LAND SURFACE =         183750.31           LAND SURFACE =         130549.56
            SOIL ZONE =         514862.70              SOIL ZONE =          36452.69
     UNSATURATED ZONE =        -284496.61       UNSATURATED ZONE =         -19624.97
       SATURATED ZONE =         -27570.93         SATURATED ZONE =          -2406.30

 OVERALL BUDGET ERROR =           -840.36           BUDGET ERROR =            -62.28


  PERCENT DISCREPANCY =             -0.13    PERCENT DISCREPANCY =             -0.04



1
 SUMMARY VOLUMETRIC BUDGET FOR GSFLOW 
 DATE: 10 21 1980              CUMULATIVE TIME STEP:      21
 MODFLOW STRESS PERIOD      2     CURRENT TIME STEP:      21     ITERATIONS:       6

 -----------------------------------------------------------------------------------

   CUMULATIVE VOLUMES               L**3   RATES FOR THIS TIME STEP           L**3/T
   ------------------                      ------------------------

                                     IN                                         IN
                                     --                                         --
        PRECIPITATION =         733157.03          PRECIPITATION =                  
           STREAMFLOW =                               STREAMFLOW =                  
     GW BOUNDARY FLOW =                         GW BOUNDARY FLOW =                  


                                    OUT                                        OUT
                                    ---                                        ---
   EVAPOTRANSPIRATION =         392356.95     EVAPOTRANSPIRATION =          34546.39
           STREAMFLOW =         145738.17             STREAMFLOW =           6915.67
     GW BOUNDARY FLOW =          13624.70       GW BOUNDARY FLOW =            648.74

   INFLOWS - OUTFLOWS =         181437.21     INFLOWS - OUTFLOWS =         -42110.79
             --------                                   --------

 TOTAL STORAGE CHANGE =         182728.43         STORAGE CHANGE =         -42040.49
       --------------                             --------------
         LAND SURFACE =                             LAND SURFACE =                  
            SOIL ZONE =         647949.41              SOIL ZONE =         -20185.26
     UNSATURATED ZONE =        -418665.67       UNSATURATED ZONE =         -18826.58
       SATURATED ZONE =         -46555.32         SATURATED ZONE =          -3028.65

 OVERALL BUDGET ERROR =          -1291.22           BUDGET ERROR =            -70.30


  PERCENT DISCREPANCY =             -0.18    PERCENT DISCREPANCY =             -0.17



1
 SUMMARY VOLUMETRIC BUDGET FOR GSFLOW 
 DATE: 10 28 1980              CUMULATIVE TIME STEP:      28
 MODFLOW STRESS PERIOD      2     CURRENT TIME STEP:      28     ITERATIONS:       6

 -----------------------------------------------------------------------------------

   CUMULATIVE VOLUMES               L**3   RATES FOR THIS TIME STEP           L**3/T
   ------------------                      ------------------------

                                     IN                                         IN
                                     --                                         --
        PRECIPITATION =        1070903.53          PRECIPITATION =                  
           STREAMFLOW =                               STREAMFLOW =                  
     GW BOUNDARY FLOW =                         GW BOUNDARY FLOW =                  


                                    OUT                                        OUT
                                    ---                                        ---
   EVAPOTRANSPIRATION =         578767.65     EVAPOTRANSPIRATION =          24710.41
           STREAMFLOW =         200325.53             STREAMFLOW =           7957.06
     GW BOUNDARY FLOW =          18165.96       GW BOUNDARY FLOW =            648.80

   INFLOWS - OUTFLOWS =         273644.39     INFLOWS - OUTFLOWS =         -33316.28
             --------                                   --------

 TOTAL STORAGE CHANGE =         275440.37         STORAGE CHANGE =         -33241.66
       --------------                             --------------
         LAND SURFACE =          20571.53           LAND SURFACE =         -29890.85
            SOIL ZONE =         871299.44              SOIL ZONE =          18137.59
     UNSATURATED ZONE =        -547248.69       UNSATURATED ZONE =         -17998.35
       SATURATED ZONE =         -69181.90         SATURATED ZONE =          -3490.06

 OVERALL BUDGET ERROR =          -1795.98           BUDGET ERROR =            -74.62


  PERCENT DISCREPANCY =             -0.17    PERCENT DISCREPANCY =             -0.22



1
 SUMMARY VOLUMETRIC BUDGET FOR GSFLOW 
 DATE: 11 04 1980              CUMULATIVE TIME STEP:      35
 MODFLOW STRESS PERIOD      2     CURRENT TIME STEP:      35     ITERATIONS:       8

 -----------------------------------------------------------------------------------

   CUMULATIVE VOLUMES               L**3   RATES FOR THIS TIME STEP           L**3/T
   ------------------                      ------------------------

                                     IN                                         IN
                                     --                                         --
        PRECIPITATION =        1070903.53          PRECIPITATION =                  
           STREAMFLOW =                               STREAMFLOW =                  
     GW BOUNDARY FLOW =                         GW BOUNDARY FLOW =                  


                                    OUT                                        OUT
                                    ---                                        ---
   EVAPOTRANSPIRATION =         910105.37     EVAPOTRANSPIRATION =          47149.10
           STREAMFLOW =         252886.43             STREAMFLOW =           7064.88
     GW BOUNDARY FLOW =          22706.96       GW BOUNDARY FLOW =            648.65

   INFLOWS - OUTFLOWS =        -114795.23     INFLOWS - OUTFLOWS =         -54862.63
             --------                                   --------

 TOTAL STORAGE CHANGE =        -112596.41         STORAGE CHANGE =         -54810.34
       --------------                             --------------
         LAND SURFACE =                             LAND SURFACE =                  
            SOIL ZONE =         654502.45              SOIL ZONE =         -33279.20
     UNSATURATED ZONE =        -670645.63       UNSATURATED ZONE =         -17360.83
       SATURATED ZONE =         -96453.23         SATURATED ZONE =          -4170.30

 OVERALL BUDGET ERROR =          -2198.82           BUDGET ERROR =            -52.29


  PERCENT DISCREPANCY =             -0.19    PERCENT DISCREPANCY =             -0.10



1
 SUMMARY VOLUMETRIC BUDGET FOR GSFLOW 
 DATE: 11 11 1980              CUMULATIVE TIME STEP:      42
 MODFLOW STRESS PERIOD      2     CURRENT TIME STEP:      42     ITERATIONS:       7

 -----------------------------------------------------------------------------------

   CUMULATIVE VOLUMES               L**3   RATES FOR THIS TIME STEP           L**3/T
   ------------------                      ------------------------

                                     IN                                         IN
                                     --                                         --
        PRECIPITATION =        1573762.54          PRECIPITATION =         255182.19
           STREAMFLOW =                               STREAMFLOW =                  
     GW BOUNDARY FLOW =                         GW BOUNDARY FLOW =                  


                                    OUT                                        OUT
                                    ---                                        ---
   EVAPOTRANSPIRATION =        1117903.71     EVAPOTRANSPIRATION =          18592.44
           STREAMFLOW =         310071.96             STREAMFLOW =          10976.92
     GW BOUNDARY FLOW =          27247.81       GW BOUNDARY FLOW =            648.87

   INFLOWS - OUTFLOWS =         118539.07     INFLOWS - OUTFLOWS =         224963.96
             --------                                   --------

 TOTAL STORAGE CHANGE =         121200.82         STORAGE CHANGE =         225018.20
       --------------                             --------------
         LAND SURFACE =          76960.22           LAND SURFACE =          76747.38
            SOIL ZONE =         959737.82              SOIL ZONE =         168886.06
     UNSATURATED ZONE =        -789133.38       UNSATURATED ZONE =         -16539.20
       SATURATED ZONE =        -126363.84         SATURATED ZONE =          -4076.04

 OVERALL BUDGET ERROR =          -2661.75           BUDGET ERROR =            -54.24


  PERCENT DISCREPANCY =             -0.17    PERCENT DISCREPANCY =             -0.02



1
 SUMMARY VOLUMETRIC BUDGET FOR GSFLOW 
 DATE: 11 18 1980              CUMULATIVE TIME STEP:      49
 MODFLOW STRESS PERIOD      2     CURRENT TIME STEP:      49     ITERATIONS:       6

 -----------------------------------------------------------------------------------

   CUMULATIVE VOLUMES               L**3   RATES FOR THIS TIME STEP           L**3/T
   ------------------                      ------------------------

                                     IN                                         IN
                                     --                                         --
        PRECIPITATION =        1573762.54          PRECIPITATION =                  
           STREAMFLOW =                               STREAMFLOW =                  
     GW BOUNDARY FLOW =                         GW BOUNDARY FLOW =                  


                                    OUT                                        OUT
                                    ---                                        ---
   EVAPOTRANSPIRATION =        1208453.96     EVAPOTRANSPIRATION =          16385.68
           STREAMFLOW =         373297.60             STREAMFLOW =           9231.58
     GW BOUNDARY FLOW =          31789.79       GW BOUNDARY FLOW =            648.86

   INFLOWS - OUTFLOWS =         -39778.81     INFLOWS - OUTFLOWS =         -26266.12
             --------                                   --------

 TOTAL STORAGE CHANGE =         -36585.95         STORAGE CHANGE =         -26181.83
       --------------                             --------------
         LAND SURFACE =           8139.47           LAND SURFACE =          -4965.50
            SOIL ZONE =        1017304.32              SOIL ZONE =           -364.70
     UNSATURATED ZONE =        -903045.03       UNSATURATED ZONE =         -16046.48
       SATURATED ZONE =        -158984.72         SATURATED ZONE =          -4805.15

 OVERALL BUDGET ERROR =          -3192.85           BUDGET ERROR =            -84.29


  PERCENT DISCREPANCY =             -0.20    PERCENT DISCREPANCY =             -0.32



1
 SUMMARY VOLUMETRIC BUDGET FOR GSFLOW 
 DATE: 11 25 1980              CUMULATIVE TIME STEP:      56
 MODFLOW STRESS PERIOD      2     CURRENT TIME STEP:      56     ITERATIONS:       7

 -----------------------------------------------------------------------------------

   CUMULATIVE VOLUMES               L**3   RATES FOR THIS TIME STEP           L**3/T
   ------------------                      ------------------------

                                     IN                                         IN
                                     --                                         --
        PRECIPITATION =        1648816.13          PRECIPITATION =                  
           STREAMFLOW =                               STREAMFLOW =                  
     GW BOUNDARY FLOW =                         GW BOUNDARY FLOW =                  


                                    OUT                                        OUT
                                    ---                                        ---
   EVAPOTRANSPIRATION =        1290464.88     EVAPOTRANSPIRATION =           9281.23
           STREAMFLOW =         438181.24             STREAMFLOW =           9376.77
     GW BOUNDARY FLOW =          36331.83       GW BOUNDARY FLOW =            648.87

   INFLOWS - OUTFLOWS =        -116161.82     INFLOWS - OUTFLOWS =         -19306.87
             --------                                   --------

 TOTAL STORAGE CHANGE =        -112421.22         STORAGE CHANGE =         -19235.85
       --------------                             --------------
         LAND SURFACE =          54136.41           LAND SURFACE =          -9258.02
            SOIL ZONE =        1041459.88              SOIL ZONE =          10855.91
     UNSATURATED ZONE =       -1012732.57       UNSATURATED ZONE =         -15408.85
       SATURATED ZONE =        -195284.93         SATURATED ZONE =          -5424.90

 OVERALL BUDGET ERROR =          -3740.60           BUDGET ERROR =            -71.02


  PERCENT DISCREPANCY =             -0.21    PERCENT DISCREPANCY =             -0.37



1
 SUMMARY VOLUMETRIC BUDGET FOR GSFLOW 
 DATE: 12 02 1980              CUMULATIVE TIME STEP:      63
 MODFLOW STRESS PERIOD      2     CURRENT TIME STEP:      63     ITERATIONS:       8

 -----------------------------------------------------------------------------------

   CUMULATIVE VOLUMES               L**3   RATES FOR THIS TIME STEP           L**3/T
   ------------------                      ------------------------

                                     IN                                         IN
                                     --                                         --
        PRECIPITATION =        2076621.55          PRECIPITATION =                  
           STREAMFLOW =                               STREAMFLOW =                  
     GW BOUNDARY FLOW =                         GW BOUNDARY FLOW =                  


                                    OUT                                        OUT
                                    ---                                        ---
   EVAPOTRANSPIRATION =        1479132.91     EVAPOTRANSPIRATION =          32848.88
           STREAMFLOW =         515600.38             STREAMFLOW =          13750.69
     GW BOUNDARY FLOW =          40874.94       GW BOUNDARY FLOW =            649.28

   INFLOWS - OUTFLOWS =          41013.32     INFLOWS - OUTFLOWS =         -47248.85
             --------                                   --------

 TOTAL STORAGE CHANGE =          45134.36         STORAGE CHANGE =         -47200.70
       --------------                             --------------
         LAND SURFACE =         157031.20           LAND SURFACE =         -76789.76
            SOIL ZONE =        1235944.35              SOIL ZONE =          47654.13
     UNSATURATED ZONE =       -1115128.35       UNSATURATED ZONE =         -13249.12
       SATURATED ZONE =        -232712.84         SATURATED ZONE =          -4815.94

 OVERALL BUDGET ERROR =          -4121.04           BUDGET ERROR =            -48.15


  PERCENT DISCREPANCY =             -0.20    PERCENT DISCREPANCY =             -0.10



1
 SUMMARY VOLUMETRIC BUDGET FOR GSFLOW 
 DATE: 12 09 1980              CUMULATIVE TIME STEP:      70
 MODFLOW STRESS PERIOD      2     CURRENT TIME STEP:      70     ITERATIONS:       7

 -----------------------------------------------------------------------------------

   CUMULATIVE VOLUMES               L**3   RATES FOR THIS TIME STEP           L**3/T
   ------------------                      ------------------------

                                     IN                                         IN
                                     --                                         --
        PRECIPITATION =        4284363.63          PRECIPITATION =                  
           STREAMFLOW =                               STREAMFLOW =                  
     GW BOUNDARY FLOW =                         GW BOUNDARY FLOW =                  


                                    OUT                                        OUT
                                    ---                                        ---
   EVAPOTRANSPIRATION =        1504771.69     EVAPOTRANSPIRATION =           3258.35
           STREAMFLOW =         605665.53             STREAMFLOW =          13238.60
     GW BOUNDARY FLOW =          45420.60       GW BOUNDARY FLOW =            649.47

   INFLOWS - OUTFLOWS =        2128505.81     INFLOWS - OUTFLOWS =         -17146.42
             --------                                   --------

 TOTAL STORAGE CHANGE =        2133064.07         STORAGE CHANGE =         -17085.29
       --------------                             --------------
         LAND SURFACE =        2337504.39           LAND SURFACE =          -3258.35
            SOIL ZONE =        1281507.61              SOIL ZONE =           6327.01
     UNSATURATED ZONE =       -1213880.42       UNSATURATED ZONE =         -14233.08
       SATURATED ZONE =        -272067.51         SATURATED ZONE =          -5920.87

 OVERALL BUDGET ERROR =          -4558.26           BUDGET ERROR =            -61.13


  PERCENT DISCREPANCY =             -0.11    PERCENT DISCREPANCY =             -0.36



1
 SUMMARY VOLUMETRIC BUDGET FOR GSFLOW 
 DATE: 12 16 1980              CUMULATIVE TIME STEP:      77
 MODFLOW STRESS PERIOD      2     CURRENT TIME STEP:      77     ITERATIONS:       7

 -----------------------------------------------------------------------------------

   CUMULATIVE VOLUMES               L**3   RATES FOR THIS TIME STEP           L**3/T
   ------------------                      ------------------------

                                     IN                                         IN
                                     --                                         --
        PRECIPITATION =        4284363.63          PRECIPITATION =                  
           STREAMFLOW =                               STREAMFLOW =                  
     GW BOUNDARY FLOW =                         GW BOUNDARY FLOW =                  


                                    OUT                                        OUT
                                    ---                                        ---
   EVAPOTRANSPIRATION =        1648773.08     EVAPOTRANSPIRATION =          33864.48
           STREAMFLOW =         716109.01             STREAMFLOW =          23002.89
     GW BOUNDARY FLOW =          49968.02       GW BOUNDARY FLOW =            650.05

   INFLOWS - OUTFLOWS =        1869513.52     INFLOWS - OUTFLOWS =         -57517.43
             --------                                   --------

 TOTAL STORAGE CHANGE =        1874500.68         STORAGE CHANGE =         -57463.26
       --------------                             --------------
         LAND SURFACE =        2017009.25           LAND SURFACE =        -133032.47
            SOIL ZONE =        1475692.27              SOIL ZONE =          89899.67
     UNSATURATED ZONE =       -1305030.65       UNSATURATED ZONE =          -9633.76
       SATURATED ZONE =        -313170.19         SATURATED ZONE =          -4696.71

 OVERALL BUDGET ERROR =          -4987.16           BUDGET ERROR =            -54.17


  PERCENT DISCREPANCY =             -0.12    PERCENT DISCREPANCY =             -0.09



1
 SUMMARY VOLUMETRIC BUDGET FOR GSFLOW 
 DATE: 12 23 1980              CUMULATIVE TIME STEP:      84
 MODFLOW STRESS PERIOD      2     CURRENT TIME STEP:      84     ITERATIONS:       9

 -----------------------------------------------------------------------------------

   CUMULATIVE VOLUMES               L**3   RATES FOR THIS TIME STEP           L**3/T
   ------------------                      ------------------------

                                     IN                                         IN
                                     --                                         --
        PRECIPITATION =        4516757.54          PRECIPITATION =                  
           STREAMFLOW =                               STREAMFLOW =                  
     GW BOUNDARY FLOW =                         GW BOUNDARY FLOW =                  


                                    OUT                                        OUT
                                    ---                                        ---
   EVAPOTRANSPIRATION =        1841427.85     EVAPOTRANSPIRATION =          33323.03
           STREAMFLOW =         939038.73             STREAMFLOW =          30610.66
     GW BOUNDARY FLOW =          54527.58       GW BOUNDARY FLOW =            651.90

   INFLOWS - OUTFLOWS =        1681763.38     INFLOWS - OUTFLOWS =         -64585.59
             --------                                   --------

 TOTAL STORAGE CHANGE =        1687013.18         STORAGE CHANGE =         -64552.87
       --------------                             --------------
         LAND SURFACE =        1383177.98           LAND SURFACE =         -50486.01
            SOIL ZONE =        1994191.51              SOIL ZONE =          -3512.86
     UNSATURATED ZONE =       -1348839.90       UNSATURATED ZONE =          -6138.86
       SATURATED ZONE =        -341516.41         SATURATED ZONE =          -4415.13

 OVERALL BUDGET ERROR =          -5249.80           BUDGET ERROR =            -32.72


  PERCENT DISCREPANCY =             -0.12    PERCENT DISCREPANCY =             -0.05



1
 SUMMARY VOLUMETRIC BUDGET FOR GSFLOW 
 DATE: 12 30 1980              CUMULATIVE TIME STEP:      91
 MODFLOW STRESS PERIOD      2     CURRENT TIME STEP:      91     ITERATIONS:      10

 -----------------------------------------------------------------------------------

   CUMULATIVE VOLUMES               L**3   RATES FOR THIS TIME STEP           L**3/T
   ------------------                      ------------------------

                                     IN                                         IN
                                     --                                         --
        PRECIPITATION =        4516757.54          PRECIPITATION =                  
           STREAMFLOW =                               STREAMFLOW =                  
     GW BOUNDARY FLOW =                         GW BOUNDARY FLOW =                  


                                    OUT                                        OUT
                                    ---                                        ---
   EVAPOTRANSPIRATION =        2155584.69     EVAPOTRANSPIRATION =          41221.09
           STREAMFLOW =        1190323.71             STREAMFLOW =          28504.70
     GW BOUNDARY FLOW =          59094.53       GW BOUNDARY FLOW =            652.45

   INFLOWS - OUTFLOWS =        1111754.60     INFLOWS - OUTFLOWS =         -70378.24
             --------                                   --------

 TOTAL STORAGE CHANGE =        1117127.89         STORAGE CHANGE =         -70367.66
       --------------                             --------------
         LAND SURFACE =         578219.84           LAND SURFACE =         -42013.04
            SOIL ZONE =        2259959.48              SOIL ZONE =         -21397.32
     UNSATURATED ZONE =       -1354589.88       UNSATURATED ZONE =          -2794.69
       SATURATED ZONE =        -366461.54         SATURATED ZONE =          -4162.61

 OVERALL BUDGET ERROR =          -5373.29           BUDGET ERROR =            -10.58


  PERCENT DISCREPANCY =             -0.12    PERCENT DISCREPANCY =             -0.02



1
 SUMMARY VOLUMETRIC BUDGET FOR GSFLOW 
 DATE: 01 06 1981              CUMULATIVE TIME STEP:      98
 MODFLOW STRESS PERIOD      2     CURRENT TIME STEP:      98     ITERATIONS:       8

 -----------------------------------------------------------------------------------

   CUMULATIVE VOLUMES               L**3   RATES FOR THIS TIME STEP           L**3/T
   ------------------                      ------------------------

                                     IN                                         IN
                                     --                                         --
        PRECIPITATION =        5004445.43          PRECIPITATION =                  
           STREAMFLOW =                               STREAMFLOW =                  
     GW BOUNDARY FLOW =                         GW BOUNDARY FLOW =                  


                                    OUT                                        OUT
                                    ---                                        ---
   EVAPOTRANSPIRATION =        2355287.49     EVAPOTRANSPIRATION =          18967.97
           STREAMFLOW =        1343804.30             STREAMFLOW =          20579.19
     GW BOUNDARY FLOW =          63656.14       GW BOUNDARY FLOW =            651.18

   INFLOWS - OUTFLOWS =        1241697.50     INFLOWS - OUTFLOWS =         -40198.35
             --------                                   --------

 TOTAL STORAGE CHANGE =        1247203.83         STORAGE CHANGE =         -40174.83
       --------------                             --------------
         LAND SURFACE =         839355.40           LAND SURFACE =         -25670.63
            SOIL ZONE =        2229090.35              SOIL ZONE =           2287.07
     UNSATURATED ZONE =       -1416992.48       UNSATURATED ZONE =         -11046.37
       SATURATED ZONE =        -404249.43         SATURATED ZONE =          -5744.90

 OVERALL BUDGET ERROR =          -5506.33           BUDGET ERROR =            -23.52


  PERCENT DISCREPANCY =             -0.11    PERCENT DISCREPANCY =             -0.06



1
 SUMMARY VOLUMETRIC BUDGET FOR GSFLOW 
 DATE: 01 13 1981              CUMULATIVE TIME STEP:     105
 MODFLOW STRESS PERIOD      2     CURRENT TIME STEP:     105     ITERATIONS:       7

 -----------------------------------------------------------------------------------

   CUMULATIVE VOLUMES               L**3   RATES FOR THIS TIME STEP           L**3/T
   ------------------                      ------------------------

                                     IN                                         IN
                                     --                                         --
        PRECIPITATION =        5004445.43          PRECIPITATION =                  
           STREAMFLOW =                               STREAMFLOW =                  
     GW BOUNDARY FLOW =                         GW BOUNDARY FLOW =                  


                                    OUT                                        OUT
                                    ---                                        ---
   EVAPOTRANSPIRATION =        2552034.06     EVAPOTRANSPIRATION =          40920.24
           STREAMFLOW =        1496695.43             STREAMFLOW =          22234.50
     GW BOUNDARY FLOW =          68213.38       GW BOUNDARY FLOW =            650.97

   INFLOWS - OUTFLOWS =         887502.56     INFLOWS - OUTFLOWS =         -63805.71
             --------                                   --------

 TOTAL STORAGE CHANGE =         893326.67         STORAGE CHANGE =         -63757.03
       --------------                             --------------
         LAND SURFACE =         592235.30           LAND SURFACE =         -46167.88
            SOIL ZONE =        2224573.33              SOIL ZONE =          -4679.23
     UNSATURATED ZONE =       -1477224.76       UNSATURATED ZONE =          -6760.71
       SATURATED ZONE =        -446257.19         SATURATED ZONE =          -6149.21

 OVERALL BUDGET ERROR =          -5824.11           BUDGET ERROR =            -48.69


  PERCENT DISCREPANCY =             -0.12    PERCENT DISCREPANCY =             -0.08



1
 SUMMARY VOLUMETRIC BUDGET FOR GSFLOW 
 DATE: 01 20 1981              CUMULATIVE TIME STEP:     112
 MODFLOW STRESS PERIOD      2     CURRENT TIME STEP:     112     ITERATIONS:       8

 -----------------------------------------------------------------------------------

   CUMULATIVE VOLUMES               L**3   RATES FOR THIS TIME STEP           L**3/T
   ------------------                      ------------------------

                                     IN                                         IN
                                     --                                         --
        PRECIPITATION =        5170466.84          PRECIPITATION =          41505.35
           STREAMFLOW =                               STREAMFLOW =                  
     GW BOUNDARY FLOW =                         GW BOUNDARY FLOW =                  


                                    OUT                                        OUT
                                    ---                                        ---
   EVAPOTRANSPIRATION =        2812061.55     EVAPOTRANSPIRATION =          30813.16
           STREAMFLOW =        1641363.59             STREAMFLOW =          20075.66
     GW BOUNDARY FLOW =          72768.65       GW BOUNDARY FLOW =            650.64

   INFLOWS - OUTFLOWS =         644273.06     INFLOWS - OUTFLOWS =         -10034.11
             --------                                   --------

 TOTAL STORAGE CHANGE =         650382.91         STORAGE CHANGE =         -10006.95
       --------------                             --------------
         LAND SURFACE =         441730.02           LAND SURFACE =           9579.04
            SOIL ZONE =        2201906.11              SOIL ZONE =         -11392.54
     UNSATURATED ZONE =       -1503644.49       UNSATURATED ZONE =          -1652.83
       SATURATED ZONE =        -489608.72         SATURATED ZONE =          -6540.62

 OVERALL BUDGET ERROR =          -6109.86           BUDGET ERROR =            -27.16


  PERCENT DISCREPANCY =             -0.12    PERCENT DISCREPANCY =             -0.05



1
 SUMMARY VOLUMETRIC BUDGET FOR GSFLOW 
 DATE: 01 27 1981              CUMULATIVE TIME STEP:     119
 MODFLOW STRESS PERIOD      2     CURRENT TIME STEP:     119     ITERATIONS:       8

 -----------------------------------------------------------------------------------

   CUMULATIVE VOLUMES               L**3   RATES FOR THIS TIME STEP           L**3/T
   ------------------                      ------------------------

                                     IN                                         IN
                                     --                                         --
        PRECIPITATION =        8646540.08          PRECIPITATION =        2936503.63
           STREAMFLOW =                               STREAMFLOW =                  
     GW BOUNDARY FLOW =                         GW BOUNDARY FLOW =                  


                                    OUT                                        OUT
                                    ---                                        ---
   EVAPOTRANSPIRATION =        3035381.69     EVAPOTRANSPIRATION =          12639.57
           STREAMFLOW =        1784820.92             STREAMFLOW =          18568.34
     GW BOUNDARY FLOW =          77322.77       GW BOUNDARY FLOW =            650.41

   INFLOWS - OUTFLOWS =        3749014.70     INFLOWS - OUTFLOWS =        2904645.31
             --------                                   --------

 TOTAL STORAGE CHANGE =        3755258.98         STORAGE CHANGE =        2904668.40
       --------------                             --------------
         LAND SURFACE =        3576156.45           LAND SURFACE =        2923864.12
            SOIL ZONE =        2208347.85              SOIL ZONE =          -6988.57
     UNSATURATED ZONE =       -1495018.30       UNSATURATED ZONE =          -5418.52
       SATURATED ZONE =        -534227.02         SATURATED ZONE =          -6788.64

 OVERALL BUDGET ERROR =          -6244.28           BUDGET ERROR =            -23.09


  PERCENT DISCREPANCY =             -0.07    PERCENT DISCREPANCY =             -0.00



1
 SUMMARY VOLUMETRIC BUDGET FOR GSFLOW 
 DATE: 02 03 1981              CUMULATIVE TIME STEP:     126
 MODFLOW STRESS PERIOD      2     CURRENT TIME STEP:     126     ITERATIONS:       9

 -----------------------------------------------------------------------------------

   CUMULATIVE VOLUMES               L**3   RATES FOR THIS TIME STEP           L**3/T
   ------------------                      ------------------------

                                     IN                                         IN
                                     --                                         --
        PRECIPITATION =        1.1739D+07          PRECIPITATION =                  
           STREAMFLOW =                               STREAMFLOW =                  
     GW BOUNDARY FLOW =                         GW BOUNDARY FLOW =                  


                                    OUT                                        OUT
                                    ---                                        ---
   EVAPOTRANSPIRATION =        3070573.05     EVAPOTRANSPIRATION =           7106.06
           STREAMFLOW =        1911542.19             STREAMFLOW =          18031.85
     GW BOUNDARY FLOW =          81874.80       GW BOUNDARY FLOW =            650.25

   INFLOWS - OUTFLOWS =        6674698.73     INFLOWS - OUTFLOWS =         -25788.16
             --------                                   --------

 TOTAL STORAGE CHANGE =        6681095.75         STORAGE CHANGE =         -25775.88
       --------------                             --------------
         LAND SURFACE =        6633113.78           LAND SURFACE =          -7106.06
            SOIL ZONE =        2198760.41              SOIL ZONE =            481.93
     UNSATURATED ZONE =       -1565779.20       UNSATURATED ZONE =         -11552.06
       SATURATED ZONE =        -584999.25         SATURATED ZONE =          -7599.69

 OVERALL BUDGET ERROR =          -6397.02           BUDGET ERROR =            -12.28


  PERCENT DISCREPANCY =             -0.05    PERCENT DISCREPANCY =             -0.05



1
 SUMMARY VOLUMETRIC BUDGET FOR GSFLOW 
 DATE: 02 10 1981              CUMULATIVE TIME STEP:     133
 MODFLOW STRESS PERIOD      2     CURRENT TIME STEP:     133     ITERATIONS:       7

 -----------------------------------------------------------------------------------

   CUMULATIVE VOLUMES               L**3   RATES FOR THIS TIME STEP           L**3/T
   ------------------                      ------------------------

                                     IN                                         IN
                                     --                                         --
        PRECIPITATION =        1.1838D+07          PRECIPITATION =                  
           STREAMFLOW =                               STREAMFLOW =                  
     GW BOUNDARY FLOW =                         GW BOUNDARY FLOW =                  


                                    OUT                                        OUT
                                    ---                                        ---
   EVAPOTRANSPIRATION =        3191676.57     EVAPOTRANSPIRATION =          32343.27
           STREAMFLOW =        2038010.51             STREAMFLOW =          18093.17
     GW BOUNDARY FLOW =          86426.58       GW BOUNDARY FLOW =            650.25

   INFLOWS - OUTFLOWS =        6522139.62     INFLOWS - OUTFLOWS =         -51086.68
             --------                                   --------

 TOTAL STORAGE CHANGE =        6528813.72         STORAGE CHANGE =         -51022.83
       --------------                             --------------
         LAND SURFACE =        6611574.78           LAND SURFACE =         -32343.27
            SOIL ZONE =        2202782.50              SOIL ZONE =            506.55
     UNSATURATED ZONE =       -1643947.95       UNSATURATED ZONE =         -10823.29
       SATURATED ZONE =        -641595.60         SATURATED ZONE =          -8362.82

 OVERALL BUDGET ERROR =          -6674.10           BUDGET ERROR =            -63.85


  PERCENT DISCREPANCY =             -0.06    PERCENT DISCREPANCY =             -0.13



1
 SUMMARY VOLUMETRIC BUDGET FOR GSFLOW 
 DATE: 02 17 1981              CUMULATIVE TIME STEP:     140
 MODFLOW STRESS PERIOD      2     CURRENT TIME STEP:     140     ITERATIONS:      14

 -----------------------------------------------------------------------------------

   CUMULATIVE VOLUMES               L**3   RATES FOR THIS TIME STEP           L**3/T
   ------------------                      ------------------------

                                     IN                                         IN
                                     --                                         --
        PRECIPITATION =        1.2765D+07          PRECIPITATION =          68929.28
           STREAMFLOW =                               STREAMFLOW =                  
     GW BOUNDARY FLOW =                         GW BOUNDARY FLOW =                  


                                    OUT                                        OUT
                                    ---                                        ---
   EVAPOTRANSPIRATION =        3512649.20     EVAPOTRANSPIRATION =          57075.59
           STREAMFLOW =        2560346.01             STREAMFLOW =         122576.19
     GW BOUNDARY FLOW =          90999.45       GW BOUNDARY FLOW =            656.68

   INFLOWS - OUTFLOWS =        6600974.45     INFLOWS - OUTFLOWS =        -111379.18
             --------                                   --------

 TOTAL STORAGE CHANGE =        6607860.74         STORAGE CHANGE =        -111379.83
       --------------                             --------------
         LAND SURFACE =        5715708.50           LAND SURFACE =        -263689.91
            SOIL ZONE =        2956705.83              SOIL ZONE =          72522.75
     UNSATURATED ZONE =       -1404928.52       UNSATURATED ZONE =          77529.96
       SATURATED ZONE =        -659625.07         SATURATED ZONE =           2257.37

 OVERALL BUDGET ERROR =          -6886.28           BUDGET ERROR =              0.65


  PERCENT DISCREPANCY =             -0.05    PERCENT DISCREPANCY =              0.00



1
 SUMMARY VOLUMETRIC BUDGET FOR GSFLOW 
 DATE: 02 24 1981              CUMULATIVE TIME STEP:     147
 MODFLOW STRESS PERIOD      2     CURRENT TIME STEP:     147     ITERATIONS:      14

 -----------------------------------------------------------------------------------

   CUMULATIVE VOLUMES               L**3   RATES FOR THIS TIME STEP           L**3/T
   ------------------                      ------------------------

                                     IN                                         IN
                                     --                                         --
        PRECIPITATION =        1.3179D+07          PRECIPITATION =         344646.37
           STREAMFLOW =                               STREAMFLOW =                  
     GW BOUNDARY FLOW =                         GW BOUNDARY FLOW =                  


                                    OUT                                        OUT
                                    ---                                        ---
   EVAPOTRANSPIRATION =        3821601.32     EVAPOTRANSPIRATION =          18156.56
           STREAMFLOW =        3126550.56             STREAMFLOW =          52219.23
     GW BOUNDARY FLOW =          95593.50       GW BOUNDARY FLOW =            655.33

   INFLOWS - OUTFLOWS =        6134799.37     INFLOWS - OUTFLOWS =         273615.25
             --------                                   --------

 TOTAL STORAGE CHANGE =        6141592.93         STORAGE CHANGE =         273599.87
       --------------                             --------------
         LAND SURFACE =        5116336.78           LAND SURFACE =         302139.62
            SOIL ZONE =        2701769.65              SOIL ZONE =         -60888.13
     UNSATURATED ZONE =       -1040263.28       UNSATURATED ZONE =          30039.05
       SATURATED ZONE =        -636250.22         SATURATED ZONE =           2309.33

 OVERALL BUDGET ERROR =          -6793.56           BUDGET ERROR =             15.38


  PERCENT DISCREPANCY =             -0.05    PERCENT DISCREPANCY =              0.00



1
 SUMMARY VOLUMETRIC BUDGET FOR GSFLOW 
 DATE: 03 03 1981              CUMULATIVE TIME STEP:     154
 MODFLOW STRESS PERIOD      2     CURRENT TIME STEP:     154     ITERATIONS:      11

 -----------------------------------------------------------------------------------

   CUMULATIVE VOLUMES               L**3   RATES FOR THIS TIME STEP           L**3/T
   ------------------                      ------------------------

                                     IN                                         IN
                                     --                                         --
        PRECIPITATION =        1.3447D+07          PRECIPITATION =                  
           STREAMFLOW =                               STREAMFLOW =                  
     GW BOUNDARY FLOW =                         GW BOUNDARY FLOW =                  


                                    OUT                                        OUT
                                    ---                                        ---
   EVAPOTRANSPIRATION =        3968315.80     EVAPOTRANSPIRATION =          40572.52
           STREAMFLOW =        3351068.69             STREAMFLOW =          27505.41
     GW BOUNDARY FLOW =         100166.64       GW BOUNDARY FLOW =            652.31

   INFLOWS - OUTFLOWS =        6027051.92     INFLOWS - OUTFLOWS =         -68730.24
             --------                                   --------

 TOTAL STORAGE CHANGE =        6033684.00         STORAGE CHANGE =         -68753.18
       --------------                             --------------
         LAND SURFACE =        5217796.91           LAND SURFACE =         -58558.95
            SOIL ZONE =        2487275.28              SOIL ZONE =            712.86
     UNSATURATED ZONE =       -1031826.94       UNSATURATED ZONE =          -9164.85
       SATURATED ZONE =        -639561.25         SATURATED ZONE =          -1742.24

 OVERALL BUDGET ERROR =          -6632.09           BUDGET ERROR =             22.94


  PERCENT DISCREPANCY =             -0.05    PERCENT DISCREPANCY =              0.03



1
 SUMMARY VOLUMETRIC BUDGET FOR GSFLOW 
 DATE: 03 10 1981              CUMULATIVE TIME STEP:     161
 MODFLOW STRESS PERIOD      2     CURRENT TIME STEP:     161     ITERATIONS:      10

 -----------------------------------------------------------------------------------

   CUMULATIVE VOLUMES               L**3   RATES FOR THIS TIME STEP           L**3/T
   ------------------                      ------------------------

                                     IN                                         IN
                                     --                                         --
        PRECIPITATION =        1.3493D+07          PRECIPITATION =                  
           STREAMFLOW =                               STREAMFLOW =                  
     GW BOUNDARY FLOW =                         GW BOUNDARY FLOW =                  


                                    OUT                                        OUT
                                    ---                                        ---
   EVAPOTRANSPIRATION =        4258851.88     EVAPOTRANSPIRATION =          60219.02
           STREAMFLOW =        3581021.32             STREAMFLOW =          42867.44
     GW BOUNDARY FLOW =         104732.15       GW BOUNDARY FLOW =            652.84

   INFLOWS - OUTFLOWS =        5548335.80     INFLOWS - OUTFLOWS =        -103739.30
             --------                                   --------

 TOTAL STORAGE CHANGE =        5554840.37         STORAGE CHANGE =        -103756.54
       --------------                             --------------
         LAND SURFACE =        4626388.03           LAND SURFACE =        -150369.62
            SOIL ZONE =        2595810.20              SOIL ZONE =          29567.57
     UNSATURATED ZONE =       -1015419.10       UNSATURATED ZONE =          17677.38
       SATURATED ZONE =        -651938.75         SATURATED ZONE =           -631.87

 OVERALL BUDGET ERROR =          -6504.57           BUDGET ERROR =             17.25


  PERCENT DISCREPANCY =             -0.05    PERCENT DISCREPANCY =              0.02



1
 SUMMARY VOLUMETRIC BUDGET FOR GSFLOW 
 DATE: 03 17 1981              CUMULATIVE TIME STEP:     168
 MODFLOW STRESS PERIOD      2     CURRENT TIME STEP:     168     ITERATIONS:       9

 -----------------------------------------------------------------------------------

   CUMULATIVE VOLUMES               L**3   RATES FOR THIS TIME STEP           L**3/T
   ------------------                      ------------------------

                                     IN                                         IN
                                     --                                         --
        PRECIPITATION =        1.3744D+07          PRECIPITATION =                  
           STREAMFLOW =                               STREAMFLOW =                  
     GW BOUNDARY FLOW =                         GW BOUNDARY FLOW =                  


                                    OUT                                        OUT
                                    ---                                        ---
   EVAPOTRANSPIRATION =        4573512.52     EVAPOTRANSPIRATION =          33262.65
           STREAMFLOW =        3807266.05             STREAMFLOW =          24204.61
     GW BOUNDARY FLOW =         109299.24       GW BOUNDARY FLOW =            651.87

   INFLOWS - OUTFLOWS =        5254413.07     INFLOWS - OUTFLOWS =         -58119.12
             --------                                   --------

 TOTAL STORAGE CHANGE =        5260786.81         STORAGE CHANGE =         -58135.48
       --------------                             --------------
         LAND SURFACE =        4488004.50           LAND SURFACE =         -32994.50
            SOIL ZONE =        2442490.33              SOIL ZONE =          -6017.92
     UNSATURATED ZONE =       -1001150.14       UNSATURATED ZONE =         -14867.40
       SATURATED ZONE =        -668557.88         SATURATED ZONE =          -4255.66

 OVERALL BUDGET ERROR =          -6373.75           BUDGET ERROR =             16.36


  PERCENT DISCREPANCY =             -0.05    PERCENT DISCREPANCY =              0.03



1
 SUMMARY VOLUMETRIC BUDGET FOR GSFLOW 
 DATE: 03 24 1981              CUMULATIVE TIME STEP:     175
 MODFLOW STRESS PERIOD      2     CURRENT TIME STEP:     175     ITERATIONS:       9

 -----------------------------------------------------------------------------------

   CUMULATIVE VOLUMES               L**3   RATES FOR THIS TIME STEP           L**3/T
   ------------------                      ------------------------

                                     IN                                         IN
                                     --                                         --
        PRECIPITATION =        1.4367D+07          PRECIPITATION =                  
           STREAMFLOW =                               STREAMFLOW =                  
     GW BOUNDARY FLOW =                         GW BOUNDARY FLOW =                  


                                    OUT                                        OUT
                                    ---                                        ---
   EVAPOTRANSPIRATION =        4893335.80     EVAPOTRANSPIRATION =          80764.17
           STREAMFLOW =        3977513.08             STREAMFLOW =          26931.90
     GW BOUNDARY FLOW =         113859.23       GW BOUNDARY FLOW =            651.39

   INFLOWS - OUTFLOWS =        5382037.40     INFLOWS - OUTFLOWS =        -108347.46
             --------                                   --------

 TOTAL STORAGE CHANGE =        5388369.15         STORAGE CHANGE =        -108352.33
       --------------                             --------------
         LAND SURFACE =        4818411.00           LAND SURFACE =         -67945.82
            SOIL ZONE =        2355015.31              SOIL ZONE =         -30846.24
     UNSATURATED ZONE =       -1082186.90       UNSATURATED ZONE =          -4709.94
       SATURATED ZONE =        -702870.27         SATURATED ZONE =          -4850.34

 OVERALL BUDGET ERROR =          -6331.75           BUDGET ERROR =              4.88


  PERCENT DISCREPANCY =             -0.04    PERCENT DISCREPANCY =              0.00



1
 SUMMARY VOLUMETRIC BUDGET FOR GSFLOW 
 DATE: 03 31 1981              CUMULATIVE TIME STEP:     182
 MODFLOW STRESS PERIOD      2     CURRENT TIME STEP:     182     ITERATIONS:      12

 -----------------------------------------------------------------------------------

   CUMULATIVE VOLUMES               L**3   RATES FOR THIS TIME STEP           L**3/T
   ------------------                      ------------------------

                                     IN                                         IN
                                     --                                         --
        PRECIPITATION =        1.5777D+07          PRECIPITATION =                  
           STREAMFLOW =                               STREAMFLOW =                  
     GW BOUNDARY FLOW =                         GW BOUNDARY FLOW =                  


                                    OUT                                        OUT
                                    ---                                        ---
   EVAPOTRANSPIRATION =        5281509.10     EVAPOTRANSPIRATION =          42424.06
           STREAMFLOW =        4452089.09             STREAMFLOW =          35756.71
     GW BOUNDARY FLOW =         118439.23       GW BOUNDARY FLOW =            653.41

   INFLOWS - OUTFLOWS =        5924710.57     INFLOWS - OUTFLOWS =         -78834.18
             --------                                   --------

 TOTAL STORAGE CHANGE =        5930933.67         STORAGE CHANGE =         -78856.14
       --------------                             --------------
         LAND SURFACE =        4995013.66           LAND SURFACE =         -43258.15
            SOIL ZONE =        2521839.51              SOIL ZONE =         -37025.00
     UNSATURATED ZONE =        -884850.24       UNSATURATED ZONE =           3043.57
       SATURATED ZONE =        -701069.26         SATURATED ZONE =          -1616.56

 OVERALL BUDGET ERROR =          -6223.09           BUDGET ERROR =             21.96


  PERCENT DISCREPANCY =             -0.04    PERCENT DISCREPANCY =              0.03



1
 SUMMARY VOLUMETRIC BUDGET FOR GSFLOW 
 DATE: 04 07 1981              CUMULATIVE TIME STEP:     189
 MODFLOW STRESS PERIOD      2     CURRENT TIME STEP:     189     ITERATIONS:      10

 -----------------------------------------------------------------------------------

   CUMULATIVE VOLUMES               L**3   RATES FOR THIS TIME STEP           L**3/T
   ------------------                      ------------------------

                                     IN                                         IN
                                     --                                         --
        PRECIPITATION =        1.6121D+07          PRECIPITATION =                  
           STREAMFLOW =                               STREAMFLOW =                  
     GW BOUNDARY FLOW =                         GW BOUNDARY FLOW =                  


                                    OUT                                        OUT
                                    ---                                        ---
   EVAPOTRANSPIRATION =        5875957.90     EVAPOTRANSPIRATION =          97287.85
           STREAMFLOW =        4765839.45             STREAMFLOW =          44022.55
     GW BOUNDARY FLOW =         123013.82       GW BOUNDARY FLOW =            653.75

   INFLOWS - OUTFLOWS =        5356656.44     INFLOWS - OUTFLOWS =        -141964.16
             --------                                   --------

 TOTAL STORAGE CHANGE =        5362736.10         STORAGE CHANGE =        -141992.25
       --------------                             --------------
         LAND SURFACE =        4409576.19           LAND SURFACE =        -135979.39
            SOIL ZONE =        2473305.13              SOIL ZONE =         -17340.85
     UNSATURATED ZONE =        -817308.73       UNSATURATED ZONE =          11200.81
       SATURATED ZONE =        -702836.48         SATURATED ZONE =            127.17

 OVERALL BUDGET ERROR =          -6079.66           BUDGET ERROR =             28.09


  PERCENT DISCREPANCY =             -0.04    PERCENT DISCREPANCY =              0.02



1
 SUMMARY VOLUMETRIC BUDGET FOR GSFLOW 
 DATE: 04 14 1981              CUMULATIVE TIME STEP:     196
 MODFLOW STRESS PERIOD      2     CURRENT TIME STEP:     196     ITERATIONS:      13

 -----------------------------------------------------------------------------------

   CUMULATIVE VOLUMES               L**3   RATES FOR THIS TIME STEP           L**3/T
   ------------------                      ------------------------

                                     IN                                         IN
                                     --                                         --
        PRECIPITATION =        1.6121D+07          PRECIPITATION =                  
           STREAMFLOW =                               STREAMFLOW =                  
     GW BOUNDARY FLOW =                         GW BOUNDARY FLOW =                  


                                    OUT                                        OUT
                                    ---                                        ---
   EVAPOTRANSPIRATION =        6739387.06     EVAPOTRANSPIRATION =         187136.52
           STREAMFLOW =        5102229.42             STREAMFLOW =          59423.44
     GW BOUNDARY FLOW =         127589.98       GW BOUNDARY FLOW =            653.95

   INFLOWS - OUTFLOWS =        4152261.14     INFLOWS - OUTFLOWS =        -247213.90
             --------                                   --------

 TOTAL STORAGE CHANGE =        4158179.62         STORAGE CHANGE =        -247230.36
       --------------                             --------------
         LAND SURFACE =        3163115.26           LAND SURFACE =        -267326.82
            SOIL ZONE =        2408987.31              SOIL ZONE =          -6658.31
     UNSATURATED ZONE =        -716367.29       UNSATURATED ZONE =          24256.51
       SATURATED ZONE =        -697555.66         SATURATED ZONE =           2498.27

 OVERALL BUDGET ERROR =          -5918.48           BUDGET ERROR =             16.45


  PERCENT DISCREPANCY =             -0.04    PERCENT DISCREPANCY =              0.01



1
 SUMMARY VOLUMETRIC BUDGET FOR GSFLOW 
 DATE: 04 21 1981              CUMULATIVE TIME STEP:     203
 MODFLOW STRESS PERIOD      2     CURRENT TIME STEP:     203     ITERATIONS:      14

 -----------------------------------------------------------------------------------

   CUMULATIVE VOLUMES               L**3   RATES FOR THIS TIME STEP           L**3/T
   ------------------                      ------------------------

                                     IN                                         IN
                                     --                                         --
        PRECIPITATION =        1.6310D+07          PRECIPITATION =                  
           STREAMFLOW =                               STREAMFLOW =                  
     GW BOUNDARY FLOW =                         GW BOUNDARY FLOW =                  


                                    OUT                                        OUT
                                    ---                                        ---
   EVAPOTRANSPIRATION =        7770460.78     EVAPOTRANSPIRATION =         146115.58
           STREAMFLOW =        5478826.09             STREAMFLOW =          52453.03
     GW BOUNDARY FLOW =         132164.02       GW BOUNDARY FLOW =            653.06

   INFLOWS - OUTFLOWS =        2928791.76     INFLOWS - OUTFLOWS =        -199221.67
             --------                                   --------

 TOTAL STORAGE CHANGE =        2934542.96         STORAGE CHANGE =        -199243.32
       --------------                             --------------
         LAND SURFACE =        1895745.75           LAND SURFACE =        -137193.58
            SOIL ZONE =        2287284.00              SOIL ZONE =         -87670.15
     UNSATURATED ZONE =        -572075.84       UNSATURATED ZONE =          21873.51
       SATURATED ZONE =        -676410.96         SATURATED ZONE =           3746.89

 OVERALL BUDGET ERROR =          -5751.20           BUDGET ERROR =             21.66


  PERCENT DISCREPANCY =             -0.04    PERCENT DISCREPANCY =              0.01



1
 SUMMARY VOLUMETRIC BUDGET FOR GSFLOW 
 DATE: 04 28 1981              CUMULATIVE TIME STEP:     210
 MODFLOW STRESS PERIOD      2     CURRENT TIME STEP:     210     ITERATIONS:      14

 -----------------------------------------------------------------------------------

   CUMULATIVE VOLUMES               L**3   RATES FOR THIS TIME STEP           L**3/T
   ------------------                      ------------------------

                                     IN                                         IN
                                     --                                         --
        PRECIPITATION =        1.6515D+07          PRECIPITATION =                  
           STREAMFLOW =                               STREAMFLOW =                  
     GW BOUNDARY FLOW =                         GW BOUNDARY FLOW =                  


                                    OUT                                        OUT
                                    ---                                        ---
   EVAPOTRANSPIRATION =        9002586.34     EVAPOTRANSPIRATION =         204221.07
           STREAMFLOW =        5732097.79             STREAMFLOW =          29691.89
     GW BOUNDARY FLOW =         136726.98       GW BOUNDARY FLOW =            650.93

   INFLOWS - OUTFLOWS =        1644021.78     INFLOWS - OUTFLOWS =        -234563.90
             --------                                   --------

 TOTAL STORAGE CHANGE =        1649585.76         STORAGE CHANGE =        -234586.25
       --------------                             --------------
         LAND SURFACE =        1024283.95           LAND SURFACE =        -106048.68
            SOIL ZONE =        1812895.89              SOIL ZONE =        -132952.29
     UNSATURATED ZONE =        -526227.73       UNSATURATED ZONE =           2617.21
       SATURATED ZONE =        -661366.35         SATURATED ZONE =           1797.51

 OVERALL BUDGET ERROR =          -5563.98           BUDGET ERROR =             22.35


  PERCENT DISCREPANCY =             -0.03    PERCENT DISCREPANCY =              0.01



1
 SUMMARY VOLUMETRIC BUDGET FOR GSFLOW 
 DATE: 05 05 1981              CUMULATIVE TIME STEP:     217
 MODFLOW STRESS PERIOD      2     CURRENT TIME STEP:     217     ITERATIONS:      14

 -----------------------------------------------------------------------------------

   CUMULATIVE VOLUMES               L**3   RATES FOR THIS TIME STEP           L**3/T
   ------------------                      ------------------------

                                     IN                                         IN
                                     --                                         --
        PRECIPITATION =        1.6515D+07          PRECIPITATION =                  
           STREAMFLOW =                               STREAMFLOW =                  
     GW BOUNDARY FLOW =                         GW BOUNDARY FLOW =                  


                                    OUT                                        OUT
                                    ---                                        ---
   EVAPOTRANSPIRATION =        9854546.63     EVAPOTRANSPIRATION =          46767.53
           STREAMFLOW =        5852967.36             STREAMFLOW =          11591.47
     GW BOUNDARY FLOW =         141275.61       GW BOUNDARY FLOW =            649.00

   INFLOWS - OUTFLOWS =         666643.29     INFLOWS - OUTFLOWS =         -59008.00
             --------                                   --------

 TOTAL STORAGE CHANGE =         672080.26         STORAGE CHANGE =         -59022.78
       --------------                             --------------
         LAND SURFACE =         572034.81           LAND SURFACE =         -19134.04
            SOIL ZONE =        1366276.19              SOIL ZONE =         -23139.18
     UNSATURATED ZONE =        -598965.57       UNSATURATED ZONE =         -14598.79
       SATURATED ZONE =        -667265.17         SATURATED ZONE =          -2150.76

 OVERALL BUDGET ERROR =          -5436.98           BUDGET ERROR =             14.78


  PERCENT DISCREPANCY =             -0.03    PERCENT DISCREPANCY =              0.03



1
 SUMMARY VOLUMETRIC BUDGET FOR GSFLOW 
 DATE: 05 12 1981              CUMULATIVE TIME STEP:     224
 MODFLOW STRESS PERIOD      2     CURRENT TIME STEP:     224     ITERATIONS:      12

 -----------------------------------------------------------------------------------

   CUMULATIVE VOLUMES               L**3   RATES FOR THIS TIME STEP           L**3/T
   ------------------                      ------------------------

                                     IN                                         IN
                                     --                                         --
        PRECIPITATION =        1.6515D+07          PRECIPITATION =                  
           STREAMFLOW =                               STREAMFLOW =                  
     GW BOUNDARY FLOW =                         GW BOUNDARY FLOW =                  


                                    OUT                                        OUT
                                    ---                                        ---
   EVAPOTRANSPIRATION =        1.0377D+07     EVAPOTRANSPIRATION =         100949.58
           STREAMFLOW =        5933425.55             STREAMFLOW =          12750.62
     GW BOUNDARY FLOW =         145815.66       GW BOUNDARY FLOW =            648.49

   INFLOWS - OUTFLOWS =          58957.64     INFLOWS - OUTFLOWS =        -114348.69
             --------                                   --------

 TOTAL STORAGE CHANGE =          64306.41         STORAGE CHANGE =        -114364.35
       --------------                             --------------
         LAND SURFACE =         357792.99           LAND SURFACE =         -38759.51
            SOIL ZONE =        1090320.45              SOIL ZONE =         -60505.61
     UNSATURATED ZONE =        -694177.30       UNSATURATED ZONE =         -10901.42
       SATURATED ZONE =        -689629.74         SATURATED ZONE =          -4197.81

 OVERALL BUDGET ERROR =          -5348.77           BUDGET ERROR =             15.65


  PERCENT DISCREPANCY =             -0.03    PERCENT DISCREPANCY =              0.01



1
 SUMMARY VOLUMETRIC BUDGET FOR GSFLOW 
 DATE: 05 19 1981              CUMULATIVE TIME STEP:     231
 MODFLOW STRESS PERIOD      2     CURRENT TIME STEP:     231     ITERATIONS:      19

 -----------------------------------------------------------------------------------

   CUMULATIVE VOLUMES               L**3   RATES FOR THIS TIME STEP           L**3/T
   ------------------                      ------------------------

                                     IN                                         IN
                                     --                                         --
        PRECIPITATION =        1.7837D+07          PRECIPITATION =         169045.43
           STREAMFLOW =                               STREAMFLOW =                  
     GW BOUNDARY FLOW =                         GW BOUNDARY FLOW =                  


                                    OUT                                        OUT
                                    ---                                        ---
   EVAPOTRANSPIRATION =        1.0716D+07     EVAPOTRANSPIRATION =          31098.89
           STREAMFLOW =        6086335.86             STREAMFLOW =          31419.44
     GW BOUNDARY FLOW =         150357.29       GW BOUNDARY FLOW =            649.98

   INFLOWS - OUTFLOWS =         884740.86     INFLOWS - OUTFLOWS =         105877.12
             --------                                   --------

 TOTAL STORAGE CHANGE =         890021.05         STORAGE CHANGE =         105868.66
       --------------                             --------------
         LAND SURFACE =         311384.15           LAND SURFACE =          16931.99
            SOIL ZONE =        2036173.90              SOIL ZONE =          86309.80
     UNSATURATED ZONE =        -734737.91       UNSATURATED ZONE =           6387.29
       SATURATED ZONE =        -722799.09         SATURATED ZONE =          -3760.41

 OVERALL BUDGET ERROR =          -5280.19           BUDGET ERROR =              8.45


  PERCENT DISCREPANCY =             -0.03    PERCENT DISCREPANCY =              0.01



1
 SUMMARY VOLUMETRIC BUDGET FOR GSFLOW 
 DATE: 05 26 1981              CUMULATIVE TIME STEP:     238
 MODFLOW STRESS PERIOD      2     CURRENT TIME STEP:     238     ITERATIONS:      18

 -----------------------------------------------------------------------------------

   CUMULATIVE VOLUMES               L**3   RATES FOR THIS TIME STEP           L**3/T
   ------------------                      ------------------------

                                     IN                                         IN
                                     --                                         --
        PRECIPITATION =        1.8252D+07          PRECIPITATION =         284303.67
           STREAMFLOW =                               STREAMFLOW =                  
     GW BOUNDARY FLOW =                         GW BOUNDARY FLOW =                  


                                    OUT                                        OUT
                                    ---                                        ---
   EVAPOTRANSPIRATION =        1.1512D+07     EVAPOTRANSPIRATION =         126247.52
           STREAMFLOW =        6223737.12             STREAMFLOW =          24050.17
     GW BOUNDARY FLOW =         154901.65       GW BOUNDARY FLOW =            648.97

   INFLOWS - OUTFLOWS =         361175.87     INFLOWS - OUTFLOWS =         133357.00
             --------                                   --------

 TOTAL STORAGE CHANGE =         366400.77         STORAGE CHANGE =         133349.05
       --------------                             --------------
         LAND SURFACE =         193288.32           LAND SURFACE =         -13054.26
            SOIL ZONE =        1699477.78              SOIL ZONE =         158409.22
     UNSATURATED ZONE =        -765201.05       UNSATURATED ZONE =          -6889.48
       SATURATED ZONE =        -761164.27         SATURATED ZONE =          -5116.43

 OVERALL BUDGET ERROR =          -5224.90           BUDGET ERROR =              7.95


  PERCENT DISCREPANCY =             -0.03    PERCENT DISCREPANCY =              0.00



1
 SUMMARY VOLUMETRIC BUDGET FOR GSFLOW 
 DATE: 06 02 1981              CUMULATIVE TIME STEP:     245
 MODFLOW STRESS PERIOD      2     CURRENT TIME STEP:     245     ITERATIONS:      13

 -----------------------------------------------------------------------------------

   CUMULATIVE VOLUMES               L**3   RATES FOR THIS TIME STEP           L**3/T
   ------------------                      ------------------------

                                     IN                                         IN
                                     --                                         --
        PRECIPITATION =        1.8318D+07          PRECIPITATION =          50869.96
           STREAMFLOW =                               STREAMFLOW =                  
     GW BOUNDARY FLOW =                         GW BOUNDARY FLOW =                  


                                    OUT                                        OUT
                                    ---                                        ---
   EVAPOTRANSPIRATION =        1.2340D+07     EVAPOTRANSPIRATION =          66237.57
           STREAMFLOW =        6309714.22             STREAMFLOW =           9114.63
     GW BOUNDARY FLOW =         159439.60       GW BOUNDARY FLOW =            647.74

   INFLOWS - OUTFLOWS =        -490489.32     INFLOWS - OUTFLOWS =         -25129.99
             --------                                   --------

 TOTAL STORAGE CHANGE =        -485301.41         STORAGE CHANGE =         -25134.21
       --------------                             --------------
         LAND SURFACE =         117089.11           LAND SURFACE =          25874.21
            SOIL ZONE =        1054079.59              SOIL ZONE =         -30827.99
     UNSATURATED ZONE =        -845541.71       UNSATURATED ZONE =         -12475.31
       SATURATED ZONE =        -810928.41         SATURATED ZONE =          -7705.12

 OVERALL BUDGET ERROR =          -5187.90           BUDGET ERROR =              4.22


  PERCENT DISCREPANCY =             -0.03    PERCENT DISCREPANCY =              0.01



1
 SUMMARY VOLUMETRIC BUDGET FOR GSFLOW 
 DATE: 06 09 1981              CUMULATIVE TIME STEP:     252
 MODFLOW STRESS PERIOD      2     CURRENT TIME STEP:     252     ITERATIONS:      15

 -----------------------------------------------------------------------------------

   CUMULATIVE VOLUMES               L**3   RATES FOR THIS TIME STEP           L**3/T
   ------------------                      ------------------------

                                     IN                                         IN
                                     --                                         --
        PRECIPITATION =        1.8318D+07          PRECIPITATION =                  
           STREAMFLOW =                               STREAMFLOW =                  
     GW BOUNDARY FLOW =                         GW BOUNDARY FLOW =                  


                                    OUT                                        OUT
                                    ---                                        ---
   EVAPOTRANSPIRATION =        1.2888D+07     EVAPOTRANSPIRATION =          55697.10
           STREAMFLOW =        6364561.14             STREAMFLOW =           7221.25
     GW BOUNDARY FLOW =         163971.28       GW BOUNDARY FLOW =            647.17

   INFLOWS - OUTFLOWS =       -1098306.04     INFLOWS - OUTFLOWS =         -63565.52
             --------                                   --------

 TOTAL STORAGE CHANGE =       -1093167.69         STORAGE CHANGE =         -63575.71
       --------------                             --------------
         LAND SURFACE =          38772.54           LAND SURFACE =          -4318.45
            SOIL ZONE =         667383.55              SOIL ZONE =         -38332.94
     UNSATURATED ZONE =        -930966.50       UNSATURATED ZONE =         -12616.28
       SATURATED ZONE =        -868357.28         SATURATED ZONE =          -8308.03

 OVERALL BUDGET ERROR =          -5138.35           BUDGET ERROR =             10.19


  PERCENT DISCREPANCY =             -0.03    PERCENT DISCREPANCY =              0.02



1
 SUMMARY VOLUMETRIC BUDGET FOR GSFLOW 
 DATE: 06 16 1981              CUMULATIVE TIME STEP:     259
 MODFLOW STRESS PERIOD      2     CURRENT TIME STEP:     259     ITERATIONS:      14

 -----------------------------------------------------------------------------------

   CUMULATIVE VOLUMES               L**3   RATES FOR THIS TIME STEP           L**3/T
   ------------------                      ------------------------

                                     IN                                         IN
                                     --                                         --
        PRECIPITATION =        1.8318D+07          PRECIPITATION =                  
           STREAMFLOW =                               STREAMFLOW =                  
     GW BOUNDARY FLOW =                         GW BOUNDARY FLOW =                  


                                    OUT                                        OUT
                                    ---                                        ---
   EVAPOTRANSPIRATION =        1.3096D+07     EVAPOTRANSPIRATION =          47454.20
           STREAMFLOW =        6412357.59             STREAMFLOW =           6684.07
     GW BOUNDARY FLOW =         168500.35       GW BOUNDARY FLOW =            646.91

   INFLOWS - OUTFLOWS =       -1359115.17     INFLOWS - OUTFLOWS =         -54785.18
             --------                                   --------

 TOTAL STORAGE CHANGE =       -1354018.72         STORAGE CHANGE =         -54787.17
       --------------                             --------------
         LAND SURFACE =          24983.31           LAND SURFACE =          -2996.08
            SOIL ZONE =         570575.08              SOIL ZONE =         -30045.64
     UNSATURATED ZONE =       -1021038.51       UNSATURATED ZONE =         -12981.75
       SATURATED ZONE =        -928538.60         SATURATED ZONE =          -8763.70

 OVERALL BUDGET ERROR =          -5096.45           BUDGET ERROR =              1.99


  PERCENT DISCREPANCY =             -0.03    PERCENT DISCREPANCY =              0.00



1
 SUMMARY VOLUMETRIC BUDGET FOR GSFLOW 
 DATE: 06 23 1981              CUMULATIVE TIME STEP:     266
 MODFLOW STRESS PERIOD      2     CURRENT TIME STEP:     266     ITERATIONS:      18

 -----------------------------------------------------------------------------------

   CUMULATIVE VOLUMES               L**3   RATES FOR THIS TIME STEP           L**3/T
   ------------------                      ------------------------

                                     IN                                         IN
                                     --                                         --
        PRECIPITATION =        1.8318D+07          PRECIPITATION =                  
           STREAMFLOW =                               STREAMFLOW =                  
     GW BOUNDARY FLOW =                         GW BOUNDARY FLOW =                  


                                    OUT                                        OUT
                                    ---                                        ---
   EVAPOTRANSPIRATION =        1.3438D+07     EVAPOTRANSPIRATION =          40286.75
           STREAMFLOW =        6456834.99             STREAMFLOW =           6105.60
     GW BOUNDARY FLOW =         173028.00       GW BOUNDARY FLOW =            646.86

   INFLOWS - OUTFLOWS =       -1749194.73     INFLOWS - OUTFLOWS =         -47039.21
             --------                                   --------

 TOTAL STORAGE CHANGE =       -1744156.30         STORAGE CHANGE =         -47048.62
       --------------                             --------------
         LAND SURFACE =           6713.78           LAND SURFACE =          -1553.37
            SOIL ZONE =         352164.66              SOIL ZONE =         -23651.02
     UNSATURATED ZONE =       -1110287.09       UNSATURATED ZONE =         -12490.52
       SATURATED ZONE =        -992747.65         SATURATED ZONE =          -9353.71

 OVERALL BUDGET ERROR =          -5038.43           BUDGET ERROR =              9.41


  PERCENT DISCREPANCY =             -0.03    PERCENT DISCREPANCY =              0.02



1
 SUMMARY VOLUMETRIC BUDGET FOR GSFLOW 
 DATE: 06 30 1981              CUMULATIVE TIME STEP:     273
 MODFLOW STRESS PERIOD      2     CURRENT TIME STEP:     273     ITERATIONS:      14

 -----------------------------------------------------------------------------------

   CUMULATIVE VOLUMES               L**3   RATES FOR THIS TIME STEP           L**3/T
   ------------------                      ------------------------

                                     IN                                         IN
[...]
                                    ---                                        ---
   EVAPOTRANSPIRATION =        2.7926D+08     EVAPOTRANSPIRATION =          37044.08
           STREAMFLOW =        1.8879D+08             STREAMFLOW =           7175.78
     GW BOUNDARY FLOW =        3738407.49       GW BOUNDARY FLOW =            651.37

   INFLOWS - OUTFLOWS =       -6728833.94     INFLOWS - OUTFLOWS =         -44871.24
             --------                                   --------

 TOTAL STORAGE CHANGE =       -6724608.13         STORAGE CHANGE =         -44888.45
       --------------                             --------------
         LAND SURFACE =                             LAND SURFACE =                  
            SOIL ZONE =         269504.98              SOIL ZONE =         -22636.67
     UNSATURATED ZONE =        5012883.19       UNSATURATED ZONE =         -29378.47
       SATURATED ZONE =       -1.2007D+07         SATURATED ZONE =           7126.69

 OVERALL BUDGET ERROR =          -4225.80           BUDGET ERROR =             17.22


  PERCENT DISCREPANCY =             -0.00    PERCENT DISCREPANCY =              0.04



1
 SUMMARY VOLUMETRIC BUDGET FOR GSFLOW 
 DATE: 07 30 1996              CUMULATIVE TIME STEP:    5782
 MODFLOW STRESS PERIOD      2     CURRENT TIME STEP:    5782     ITERATIONS:      15

 -----------------------------------------------------------------------------------

   CUMULATIVE VOLUMES               L**3   RATES FOR THIS TIME STEP           L**3/T
   ------------------                      ------------------------

                                     IN                                         IN
                                     --                                         --
        PRECIPITATION =        4.6511D+08          PRECIPITATION =                  
           STREAMFLOW =                               STREAMFLOW =                  
     GW BOUNDARY FLOW =                         GW BOUNDARY FLOW =                  


                                    OUT                                        OUT
                                    ---                                        ---
   EVAPOTRANSPIRATION =        2.7949D+08     EVAPOTRANSPIRATION =          24453.04
           STREAMFLOW =        1.8884D+08             STREAMFLOW =           7020.72
     GW BOUNDARY FLOW =        3742965.40       GW BOUNDARY FLOW =            650.97

   INFLOWS - OUTFLOWS =       -6964474.68     INFLOWS - OUTFLOWS =         -32124.74
             --------                                   --------

 TOTAL STORAGE CHANGE =       -6960427.36         STORAGE CHANGE =         -32153.47
       --------------                             --------------
         LAND SURFACE =                             LAND SURFACE =                  
            SOIL ZONE =         188013.82              SOIL ZONE =         -10249.38
     UNSATURATED ZONE =        4811480.24       UNSATURATED ZONE =         -28487.09
       SATURATED ZONE =       -1.1960D+07         SATURATED ZONE =           6583.00

 OVERALL BUDGET ERROR =          -4047.32           BUDGET ERROR =             28.73


  PERCENT DISCREPANCY =             -0.00    PERCENT DISCREPANCY =              0.09



1
 SUMMARY VOLUMETRIC BUDGET FOR GSFLOW 
 DATE: 08 06 1996              CUMULATIVE TIME STEP:    5789
 MODFLOW STRESS PERIOD      2     CURRENT TIME STEP:    5789     ITERATIONS:      16

 -----------------------------------------------------------------------------------

   CUMULATIVE VOLUMES               L**3   RATES FOR THIS TIME STEP           L**3/T
   ------------------                      ------------------------

                                     IN                                         IN
                                     --                                         --
        PRECIPITATION =        4.6511D+08          PRECIPITATION =                  
           STREAMFLOW =                               STREAMFLOW =                  
     GW BOUNDARY FLOW =                         GW BOUNDARY FLOW =                  


                                    OUT                                        OUT
                                    ---                                        ---
   EVAPOTRANSPIRATION =        2.7962D+08     EVAPOTRANSPIRATION =          16350.19
           STREAMFLOW =        1.8889D+08             STREAMFLOW =           6821.36
     GW BOUNDARY FLOW =        3747521.90       GW BOUNDARY FLOW =            650.87

   INFLOWS - OUTFLOWS =       -7149455.99     INFLOWS - OUTFLOWS =         -23822.42
             --------                                   --------

 TOTAL STORAGE CHANGE =       -7145564.62         STORAGE CHANGE =         -23844.50
       --------------                             --------------
         LAND SURFACE =                             LAND SURFACE =                  
            SOIL ZONE =         154834.84              SOIL ZONE =          -2274.40
     UNSATURATED ZONE =        4617610.24       UNSATURATED ZONE =         -27320.56
       SATURATED ZONE =       -1.1918D+07         SATURATED ZONE =           5750.47

 OVERALL BUDGET ERROR =          -3891.37           BUDGET ERROR =             22.07


  PERCENT DISCREPANCY =             -0.00    PERCENT DISCREPANCY =              0.09



1
 SUMMARY VOLUMETRIC BUDGET FOR GSFLOW 
 DATE: 08 13 1996              CUMULATIVE TIME STEP:    5796
 MODFLOW STRESS PERIOD      2     CURRENT TIME STEP:    5796     ITERATIONS:      15

 -----------------------------------------------------------------------------------

   CUMULATIVE VOLUMES               L**3   RATES FOR THIS TIME STEP           L**3/T
   ------------------                      ------------------------

                                     IN                                         IN
                                     --                                         --
        PRECIPITATION =        4.6531D+08          PRECIPITATION =          54454.08
           STREAMFLOW =                               STREAMFLOW =                  
     GW BOUNDARY FLOW =                         GW BOUNDARY FLOW =                  


                                    OUT                                        OUT
                                    ---                                        ---
   EVAPOTRANSPIRATION =        2.7978D+08     EVAPOTRANSPIRATION =          29197.11
           STREAMFLOW =        1.8894D+08             STREAMFLOW =           8032.50
     GW BOUNDARY FLOW =        3752077.40       GW BOUNDARY FLOW =            650.79

   INFLOWS - OUTFLOWS =       -7162800.08     INFLOWS - OUTFLOWS =          16573.68
             --------                                   --------

 TOTAL STORAGE CHANGE =       -7159068.01         STORAGE CHANGE =          16547.72
       --------------                             --------------
         LAND SURFACE =          34505.06           LAND SURFACE =                  
            SOIL ZONE =         256280.33              SOIL ZONE =          37711.39
     UNSATURATED ZONE =        4433466.56       UNSATURATED ZONE =         -25658.02
       SATURATED ZONE =       -1.1883D+07         SATURATED ZONE =           4494.35

 OVERALL BUDGET ERROR =          -3732.07           BUDGET ERROR =             25.96


  PERCENT DISCREPANCY =             -0.00    PERCENT DISCREPANCY =              0.05



1
 SUMMARY VOLUMETRIC BUDGET FOR GSFLOW 
 DATE: 08 20 1996              CUMULATIVE TIME STEP:    5803
 MODFLOW STRESS PERIOD      2     CURRENT TIME STEP:    5803     ITERATIONS:      15

 -----------------------------------------------------------------------------------

   CUMULATIVE VOLUMES               L**3   RATES FOR THIS TIME STEP           L**3/T
   ------------------                      ------------------------

                                     IN                                         IN
                                     --                                         --
        PRECIPITATION =        4.6531D+08          PRECIPITATION =                  
           STREAMFLOW =                               STREAMFLOW =                  
     GW BOUNDARY FLOW =                         GW BOUNDARY FLOW =                  


                                    OUT                                        OUT
                                    ---                                        ---
   EVAPOTRANSPIRATION =        2.7997D+08     EVAPOTRANSPIRATION =          17447.25
           STREAMFLOW =        1.8899D+08             STREAMFLOW =           6616.91
     GW BOUNDARY FLOW =        3756631.21       GW BOUNDARY FLOW =            650.36

   INFLOWS - OUTFLOWS =       -7405356.09     INFLOWS - OUTFLOWS =         -24714.52
             --------                                   --------

 TOTAL STORAGE CHANGE =       -7401790.26         STORAGE CHANGE =         -24737.37
       --------------                             --------------
         LAND SURFACE =                             LAND SURFACE =                  
            SOIL ZONE =         195876.94              SOIL ZONE =          -3737.95
     UNSATURATED ZONE =        4257154.53       UNSATURATED ZONE =         -24499.80
       SATURATED ZONE =       -1.1855D+07         SATURATED ZONE =           3500.38

 OVERALL BUDGET ERROR =          -3565.83           BUDGET ERROR =             22.85


  PERCENT DISCREPANCY =             -0.00    PERCENT DISCREPANCY =              0.09



1
 SUMMARY VOLUMETRIC BUDGET FOR GSFLOW 
 DATE: 08 27 1996              CUMULATIVE TIME STEP:    5810
 MODFLOW STRESS PERIOD      2     CURRENT TIME STEP:    5810     ITERATIONS:      15

 -----------------------------------------------------------------------------------

   CUMULATIVE VOLUMES               L**3   RATES FOR THIS TIME STEP           L**3/T
   ------------------                      ------------------------

                                     IN                                         IN
                                     --                                         --
        PRECIPITATION =        4.6531D+08          PRECIPITATION =                  
           STREAMFLOW =                               STREAMFLOW =                  
     GW BOUNDARY FLOW =                         GW BOUNDARY FLOW =                  


                                    OUT                                        OUT
                                    ---                                        ---
   EVAPOTRANSPIRATION =        2.8011D+08     EVAPOTRANSPIRATION =          16062.61
           STREAMFLOW =        1.8903D+08             STREAMFLOW =           6462.78
     GW BOUNDARY FLOW =        3761182.16       GW BOUNDARY FLOW =            649.97

   INFLOWS - OUTFLOWS =       -7593504.86     INFLOWS - OUTFLOWS =         -23175.36
             --------                                   --------

 TOTAL STORAGE CHANGE =       -7590079.64         STORAGE CHANGE =         -23192.30
       --------------                             --------------
         LAND SURFACE =                             LAND SURFACE =                  
            SOIL ZONE =         153523.87              SOIL ZONE =          -2456.29
     UNSATURATED ZONE =        4092672.74       UNSATURATED ZONE =         -22870.45
       SATURATED ZONE =       -1.1836D+07         SATURATED ZONE =           2134.44

 OVERALL BUDGET ERROR =          -3425.22           BUDGET ERROR =             16.94


  PERCENT DISCREPANCY =             -0.00    PERCENT DISCREPANCY =              0.07



1
 SUMMARY VOLUMETRIC BUDGET FOR GSFLOW 
 DATE: 09 03 1996              CUMULATIVE TIME STEP:    5817
 MODFLOW STRESS PERIOD      2     CURRENT TIME STEP:    5817     ITERATIONS:      15

 -----------------------------------------------------------------------------------

   CUMULATIVE VOLUMES               L**3   RATES FOR THIS TIME STEP           L**3/T
   ------------------                      ------------------------

                                     IN                                         IN
                                     --                                         --
        PRECIPITATION =        4.6531D+08          PRECIPITATION =                  
           STREAMFLOW =                               STREAMFLOW =                  
     GW BOUNDARY FLOW =                         GW BOUNDARY FLOW =                  


                                    OUT                                        OUT
                                    ---                                        ---
   EVAPOTRANSPIRATION =        2.8022D+08     EVAPOTRANSPIRATION =          12608.73
           STREAMFLOW =        1.8908D+08             STREAMFLOW =           6356.43
     GW BOUNDARY FLOW =        3765730.34       GW BOUNDARY FLOW =            649.57

   INFLOWS - OUTFLOWS =       -7752415.25     INFLOWS - OUTFLOWS =         -19614.73
             --------                                   --------

 TOTAL STORAGE CHANGE =       -7749137.50         STORAGE CHANGE =         -19635.48
       --------------                             --------------
         LAND SURFACE =                             LAND SURFACE =                  
            SOIL ZONE =         138664.07              SOIL ZONE =            860.03
     UNSATURATED ZONE =        3934356.76       UNSATURATED ZONE =         -22569.34
       SATURATED ZONE =       -1.1822D+07         SATURATED ZONE =           2073.83

 OVERALL BUDGET ERROR =          -3277.75           BUDGET ERROR =             20.75


  PERCENT DISCREPANCY =             -0.00    PERCENT DISCREPANCY =              0.11



1
 SUMMARY VOLUMETRIC BUDGET FOR GSFLOW 
 DATE: 09 10 1996              CUMULATIVE TIME STEP:    5824
 MODFLOW STRESS PERIOD      2     CURRENT TIME STEP:    5824     ITERATIONS:      13

 -----------------------------------------------------------------------------------

   CUMULATIVE VOLUMES               L**3   RATES FOR THIS TIME STEP           L**3/T
   ------------------                      ------------------------

                                     IN                                         IN
                                     --                                         --
        PRECIPITATION =        4.6531D+08          PRECIPITATION =                  
           STREAMFLOW =                               STREAMFLOW =                  
     GW BOUNDARY FLOW =                         GW BOUNDARY FLOW =                  


                                    OUT                                        OUT
                                    ---                                        ---
   EVAPOTRANSPIRATION =        2.8031D+08     EVAPOTRANSPIRATION =          13166.58
           STREAMFLOW =        1.8912D+08             STREAMFLOW =           6257.92
     GW BOUNDARY FLOW =        3770275.90       GW BOUNDARY FLOW =            649.20

   INFLOWS - OUTFLOWS =       -7887571.85     INFLOWS - OUTFLOWS =         -20073.71
             --------                                   --------

 TOTAL STORAGE CHANGE =       -7884464.12         STORAGE CHANGE =         -20107.57
       --------------                             --------------
         LAND SURFACE =                             LAND SURFACE =                  
            SOIL ZONE =         145891.84              SOIL ZONE =            168.12
     UNSATURATED ZONE =        3781511.89       UNSATURATED ZONE =         -21101.98
       SATURATED ZONE =       -1.1812D+07         SATURATED ZONE =            826.29

 OVERALL BUDGET ERROR =          -3107.72           BUDGET ERROR =             33.86


  PERCENT DISCREPANCY =             -0.00    PERCENT DISCREPANCY =              0.17



1
 SUMMARY VOLUMETRIC BUDGET FOR GSFLOW 
 DATE: 09 17 1996              CUMULATIVE TIME STEP:    5831
 MODFLOW STRESS PERIOD      2     CURRENT TIME STEP:    5831     ITERATIONS:      21

 -----------------------------------------------------------------------------------

   CUMULATIVE VOLUMES               L**3   RATES FOR THIS TIME STEP           L**3/T
   ------------------                      ------------------------

                                     IN                                         IN
                                     --                                         --
        PRECIPITATION =        4.6637D+08          PRECIPITATION =                  
           STREAMFLOW =                               STREAMFLOW =                  
     GW BOUNDARY FLOW =                         GW BOUNDARY FLOW =                  


                                    OUT                                        OUT
                                    ---                                        ---
   EVAPOTRANSPIRATION =        2.8048D+08     EVAPOTRANSPIRATION =          52774.70
           STREAMFLOW =        1.8919D+08             STREAMFLOW =          10493.20
     GW BOUNDARY FLOW =        3774820.81       GW BOUNDARY FLOW =            649.62

   INFLOWS - OUTFLOWS =       -7074203.00     INFLOWS - OUTFLOWS =         -63917.52
             --------                                   --------

 TOTAL STORAGE CHANGE =       -7071165.11         STORAGE CHANGE =         -63928.64
       --------------                             --------------
         LAND SURFACE =            821.85           LAND SURFACE =         -33683.21
            SOIL ZONE =        1097160.46              SOIL ZONE =         -10266.95
     UNSATURATED ZONE =        3634933.91       UNSATURATED ZONE =         -20678.97
       SATURATED ZONE =       -1.1804D+07         SATURATED ZONE =            700.49

 OVERALL BUDGET ERROR =          -3037.89           BUDGET ERROR =             11.12


  PERCENT DISCREPANCY =             -0.00    PERCENT DISCREPANCY =              0.02



1
 SUMMARY VOLUMETRIC BUDGET FOR GSFLOW 
 DATE: 09 24 1996              CUMULATIVE TIME STEP:    5838
 MODFLOW STRESS PERIOD      2     CURRENT TIME STEP:    5838     ITERATIONS:      18

 -----------------------------------------------------------------------------------

   CUMULATIVE VOLUMES               L**3   RATES FOR THIS TIME STEP           L**3/T
   ------------------                      ------------------------

                                     IN                                         IN
                                     --                                         --
        PRECIPITATION =        4.6637D+08          PRECIPITATION =                  
           STREAMFLOW =                               STREAMFLOW =                  
     GW BOUNDARY FLOW =                         GW BOUNDARY FLOW =                  


                                    OUT                                        OUT
                                    ---                                        ---
   EVAPOTRANSPIRATION =        2.8097D+08     EVAPOTRANSPIRATION =          56301.85
           STREAMFLOW =        1.8925D+08             STREAMFLOW =           6924.72
     GW BOUNDARY FLOW =        3779364.29       GW BOUNDARY FLOW =            648.74

   INFLOWS - OUTFLOWS =       -7626821.78     INFLOWS - OUTFLOWS =         -63875.31
             --------                                   --------

 TOTAL STORAGE CHANGE =       -7623859.26         STORAGE CHANGE =         -63889.42
       --------------                             --------------
         LAND SURFACE =                             LAND SURFACE =                  
            SOIL ZONE =         684683.89              SOIL ZONE =         -44046.91
     UNSATURATED ZONE =        3493806.31       UNSATURATED ZONE =         -19613.65
       SATURATED ZONE =       -1.1802D+07         SATURATED ZONE =           -228.87

 OVERALL BUDGET ERROR =          -2962.51           BUDGET ERROR =             14.12


  PERCENT DISCREPANCY =             -0.00    PERCENT DISCREPANCY =              0.02



