1
 SUMMARY VOLUMETRIC BUDGET FOR GSFLOW 
 DATE: 10 07 1980              CUMULATIVE TIME STEP:       7
 MODFLOW STRESS PERIOD      2     CURRENT TIME STEP:       7     ITERATIONS:       6

 -----------------------------------------------------------------------------------

   CUMULATIVE VOLUMES               L**3   RATES FOR THIS TIME STEP           L**3/T
   ------------------                      ------------------------

                                     IN                                         IN
                                     --                                         --
        PRECIPITATION =                            PRECIPITATION =                  
           STREAMFLOW =                               STREAMFLOW =                  
     GW BOUNDARY FLOW =                         GW BOUNDARY FLOW =                  


                                    OUT                                        OUT
                                    ---                                        ---
   EVAPOTRANSPIRATION =          66593.42     EVAPOTRANSPIRATION =           9275.39
           STREAMFLOW =          42957.50             STREAMFLOW =           6065.76
     GW BOUNDARY FLOW =           4541.44       GW BOUNDARY FLOW =            648.70

   INFLOWS - OUTFLOWS =        -114092.36     INFLOWS - OUTFLOWS =         -15989.84
             --------                                   --------

 TOTAL STORAGE CHANGE =        -113696.75         STORAGE CHANGE =         -15929.26
       --------------                             --------------
         LAND SURFACE =                             LAND SURFACE =                  
            SOIL ZONE =          43922.56              SOIL ZONE =           6420.92
     UNSATURATED ZONE =        -144779.04       UNSATURATED ZONE =         -20361.32
       SATURATED ZONE =         -12840.27         SATURATED ZONE =          -1988.86

 OVERALL BUDGET ERROR =           -395.61           BUDGET ERROR =            -60.59


  PERCENT DISCREPANCY =             -0.35    PERCENT DISCREPANCY =             -0.38



1
 SUMMARY VOLUMETRIC BUDGET FOR GSFLOW 
 DATE: 10 14 1980              CUMULATIVE TIME STEP:      14
 MODFLOW STRESS PERIOD      2     CURRENT TIME STEP:      14     ITERATIONS:       6

 -----------------------------------------------------------------------------------

   CUMULATIVE VOLUMES               L**3   RATES FOR THIS TIME STEP           L**3/T
   ------------------                      ------------------------

                                     IN                                         IN
                                     --                                         --
        PRECIPITATION =         650780.39          PRECIPITATION =         164754.68
           STREAMFLOW =                               STREAMFLOW =                  
     GW BOUNDARY FLOW =                         GW BOUNDARY FLOW =                  


                                    OUT                                        OUT
                                    ---                                        ---
   EVAPOTRANSPIRATION =         162751.97     EVAPOTRANSPIRATION =          11476.73
           STREAMFLOW =          94486.15             STREAMFLOW =           7727.16
     GW BOUNDARY FLOW =           9082.96       GW BOUNDARY FLOW =            648.94

   INFLOWS - OUTFLOWS =         384459.32     INFLOWS - OUTFLOWS =         144901.85
             --------                                   --------

 TOTAL STORAGE CHANGE =         385298.09         STORAGE CHANGE =         144963.28
       --------------                             --------------
         LAND SURFACE =         183752.11           LAND SURFACE =         130549.80
            SOIL ZONE =         513611.55              SOIL ZONE =          36443.87
     UNSATURATED ZONE =        -284496.87       UNSATURATED ZONE =         -19624.98
       SATURATED ZONE =         -27568.70         SATURATED ZONE =          -2405.41

 OVERALL BUDGET ERROR =           -838.77           BUDGET ERROR =            -61.42


  PERCENT DISCREPANCY =             -0.13    PERCENT DISCREPANCY =             -0.04



1
 SUMMARY VOLUMETRIC BUDGET FOR GSFLOW 
 DATE: 10 21 1980              CUMULATIVE TIME STEP:      21
 MODFLOW STRESS PERIOD      2     CURRENT TIME STEP:      21     ITERATIONS:       6

 -----------------------------------------------------------------------------------

   CUMULATIVE VOLUMES               L**3   RATES FOR THIS TIME STEP           L**3/T
   ------------------                      ------------------------

                                     IN                                         IN
                                     --                                         --
        PRECIPITATION =         733156.23          PRECIPITATION =                  
           STREAMFLOW =                               STREAMFLOW =                  
     GW BOUNDARY FLOW =                         GW BOUNDARY FLOW =                  


                                    OUT                                        OUT
                                    ---                                        ---
   EVAPOTRANSPIRATION =         433017.03     EVAPOTRANSPIRATION =          44097.31
           STREAMFLOW =         145902.26             STREAMFLOW =           6875.10
     GW BOUNDARY FLOW =          13624.72       GW BOUNDARY FLOW =            648.73

   INFLOWS - OUTFLOWS =         140612.22     INFLOWS - OUTFLOWS =         -51621.15
             --------                                   --------

 TOTAL STORAGE CHANGE =         141902.64         STORAGE CHANGE =         -51550.81
       --------------                             --------------
         LAND SURFACE =                             LAND SURFACE =                  
            SOIL ZONE =         607161.61              SOIL ZONE =         -29689.04
     UNSATURATED ZONE =        -418694.09       UNSATURATED ZONE =         -18825.22
       SATURATED ZONE =         -46564.87         SATURATED ZONE =          -3036.55

 OVERALL BUDGET ERROR =          -1290.42           BUDGET ERROR =            -70.34


  PERCENT DISCREPANCY =             -0.18    PERCENT DISCREPANCY =             -0.14



1
 SUMMARY VOLUMETRIC BUDGET FOR GSFLOW 
 DATE: 10 28 1980              CUMULATIVE TIME STEP:      28
 MODFLOW STRESS PERIOD      2     CURRENT TIME STEP:      28     ITERATIONS:       6

 -----------------------------------------------------------------------------------

   CUMULATIVE VOLUMES               L**3   RATES FOR THIS TIME STEP           L**3/T
   ------------------                      ------------------------

                                     IN                                         IN
                                     --                                         --
        PRECIPITATION =        1070899.96          PRECIPITATION =                  
           STREAMFLOW =                               STREAMFLOW =                  
     GW BOUNDARY FLOW =                         GW BOUNDARY FLOW =                  


                                    OUT                                        OUT
                                    ---                                        ---
   EVAPOTRANSPIRATION =         623825.50     EVAPOTRANSPIRATION =          24681.28
           STREAMFLOW =         199271.07             STREAMFLOW =           7737.57
     GW BOUNDARY FLOW =          18165.84       GW BOUNDARY FLOW =            648.77

   INFLOWS - OUTFLOWS =         229637.55     INFLOWS - OUTFLOWS =         -33067.62
             --------                                   --------

 TOTAL STORAGE CHANGE =         231438.64         STORAGE CHANGE =         -32991.31
       --------------                             --------------
         LAND SURFACE =          20573.21           LAND SURFACE =         -29874.96
            SOIL ZONE =         827613.10              SOIL ZONE =          18416.06
     UNSATURATED ZONE =        -547435.33       UNSATURATED ZONE =         -18024.65
       SATURATED ZONE =         -69312.35         SATURATED ZONE =          -3507.77

 OVERALL BUDGET ERROR =          -1801.09           BUDGET ERROR =            -76.31


  PERCENT DISCREPANCY =             -0.17    PERCENT DISCREPANCY =             -0.23



1
 SUMMARY VOLUMETRIC BUDGET FOR GSFLOW 
 DATE: 11 04 1980              CUMULATIVE TIME STEP:      35
 MODFLOW STRESS PERIOD      2     CURRENT TIME STEP:      35     ITERATIONS:      10

 -----------------------------------------------------------------------------------

   CUMULATIVE VOLUMES               L**3   RATES FOR THIS TIME STEP           L**3/T
   ------------------                      ------------------------

                                     IN                                         IN
                                     --                                         --
        PRECIPITATION =        1070899.96          PRECIPITATION =                  
           STREAMFLOW =                               STREAMFLOW =                  
     GW BOUNDARY FLOW =                         GW BOUNDARY FLOW =                  


                                    OUT                                        OUT
                                    ---                                        ---
   EVAPOTRANSPIRATION =         962115.53     EVAPOTRANSPIRATION =          43312.49
           STREAMFLOW =         250164.44             STREAMFLOW =           6825.60
     GW BOUNDARY FLOW =          22706.59       GW BOUNDARY FLOW =            648.61

   INFLOWS - OUTFLOWS =        -164086.60     INFLOWS - OUTFLOWS =         -50786.70
             --------                                   --------

 TOTAL STORAGE CHANGE =        -161896.16         STORAGE CHANGE =         -50744.40
       --------------                             --------------
         LAND SURFACE =                             LAND SURFACE =                  
            SOIL ZONE =         605832.00              SOIL ZONE =         -29184.89
     UNSATURATED ZONE =        -670900.85       UNSATURATED ZONE =         -17352.13
       SATURATED ZONE =         -96827.31         SATURATED ZONE =          -4207.38

 OVERALL BUDGET ERROR =          -2190.44           BUDGET ERROR =            -42.30


  PERCENT DISCREPANCY =             -0.18    PERCENT DISCREPANCY =             -0.08



1
 SUMMARY VOLUMETRIC BUDGET FOR GSFLOW 
 DATE: 11 11 1980              CUMULATIVE TIME STEP:      42
 MODFLOW STRESS PERIOD      2     CURRENT TIME STEP:      42     ITERATIONS:       7

 -----------------------------------------------------------------------------------

   CUMULATIVE VOLUMES               L**3   RATES FOR THIS TIME STEP           L**3/T
   ------------------                      ------------------------

                                     IN                                         IN
                                     --                                         --
        PRECIPITATION =        1573759.34          PRECIPITATION =         255182.10
           STREAMFLOW =                               STREAMFLOW =                  
     GW BOUNDARY FLOW =                         GW BOUNDARY FLOW =                  


                                    OUT                                        OUT
                                    ---                                        ---
   EVAPOTRANSPIRATION =        1193989.33     EVAPOTRANSPIRATION =          17062.46
           STREAMFLOW =         305335.08             STREAMFLOW =          10509.54
     GW BOUNDARY FLOW =          27247.17       GW BOUNDARY FLOW =            648.82

   INFLOWS - OUTFLOWS =          47187.75     INFLOWS - OUTFLOWS =         226961.28
             --------                                   --------

 TOTAL STORAGE CHANGE =          49846.19         STORAGE CHANGE =         227023.02
       --------------                             --------------
         LAND SURFACE =          76836.74           LAND SURFACE =          76836.74
            SOIL ZONE =         889529.57              SOIL ZONE =         170950.86
     UNSATURATED ZONE =        -789536.60       UNSATURATED ZONE =         -16596.61
       SATURATED ZONE =        -126983.52         SATURATED ZONE =          -4167.98

 OVERALL BUDGET ERROR =          -2658.44           BUDGET ERROR =            -61.74


  PERCENT DISCREPANCY =             -0.17    PERCENT DISCREPANCY =             -0.02



1
 SUMMARY VOLUMETRIC BUDGET FOR GSFLOW 
 DATE: 11 18 1980              CUMULATIVE TIME STEP:      49
 MODFLOW STRESS PERIOD      2     CURRENT TIME STEP:      49     ITERATIONS:       6

 -----------------------------------------------------------------------------------

   CUMULATIVE VOLUMES               L**3   RATES FOR THIS TIME STEP           L**3/T
   ------------------                      ------------------------

                                     IN                                         IN
                                     --                                         --
        PRECIPITATION =        1573759.34          PRECIPITATION =                  
           STREAMFLOW =                               STREAMFLOW =                  
     GW BOUNDARY FLOW =                         GW BOUNDARY FLOW =                  


                                    OUT                                        OUT
                                    ---                                        ---
   EVAPOTRANSPIRATION =        1290989.76     EVAPOTRANSPIRATION =          23195.33
           STREAMFLOW =         365821.63             STREAMFLOW =           8947.58
     GW BOUNDARY FLOW =          31788.76       GW BOUNDARY FLOW =            648.81

   INFLOWS - OUTFLOWS =        -114840.82     INFLOWS - OUTFLOWS =         -32791.71
             --------                                   --------

 TOTAL STORAGE CHANGE =        -111699.23         STORAGE CHANGE =         -32709.24
       --------------                             --------------
         LAND SURFACE =           5398.38           LAND SURFACE =          -7586.22
            SOIL ZONE =         946575.76              SOIL ZONE =          -4261.68
     UNSATURATED ZONE =        -903520.00       UNSATURATED ZONE =         -16026.27
       SATURATED ZONE =        -160153.38         SATURATED ZONE =          -4835.06

 OVERALL BUDGET ERROR =          -3141.58           BUDGET ERROR =            -82.48


  PERCENT DISCREPANCY =             -0.19    PERCENT DISCREPANCY =             -0.25



1
 SUMMARY VOLUMETRIC BUDGET FOR GSFLOW 
 DATE: 11 25 1980              CUMULATIVE TIME STEP:      56
 MODFLOW STRESS PERIOD      2     CURRENT TIME STEP:      56     ITERATIONS:       7

 -----------------------------------------------------------------------------------

   CUMULATIVE VOLUMES               L**3   RATES FOR THIS TIME STEP           L**3/T
   ------------------                      ------------------------

                                     IN                                         IN
                                     --                                         --
        PRECIPITATION =        1648813.76          PRECIPITATION =                  
           STREAMFLOW =                               STREAMFLOW =                  
     GW BOUNDARY FLOW =                         GW BOUNDARY FLOW =                  


                                    OUT                                        OUT
                                    ---                                        ---
   EVAPOTRANSPIRATION =        1380051.44     EVAPOTRANSPIRATION =           9280.00
           STREAMFLOW =         428894.73             STREAMFLOW =           9138.90
     GW BOUNDARY FLOW =          36330.51       GW BOUNDARY FLOW =            648.83

   INFLOWS - OUTFLOWS =        -196462.92     INFLOWS - OUTFLOWS =         -19067.73
             --------                                   --------

 TOTAL STORAGE CHANGE =        -192717.71         STORAGE CHANGE =         -19002.11
       --------------                             --------------
         LAND SURFACE =          53187.47           LAND SURFACE =          -9260.11
            SOIL ZONE =         963834.91              SOIL ZONE =          11117.19
     UNSATURATED ZONE =       -1013221.77       UNSATURATED ZONE =         -15403.46
       SATURATED ZONE =        -196518.32         SATURATED ZONE =          -5455.73

 OVERALL BUDGET ERROR =          -3745.21           BUDGET ERROR =            -65.62


  PERCENT DISCREPANCY =             -0.20    PERCENT DISCREPANCY =             -0.34



1
 SUMMARY VOLUMETRIC BUDGET FOR GSFLOW 
 DATE: 12 02 1980              CUMULATIVE TIME STEP:      63
 MODFLOW STRESS PERIOD      2     CURRENT TIME STEP:      63     ITERATIONS:       7

 -----------------------------------------------------------------------------------

   CUMULATIVE VOLUMES               L**3   RATES FOR THIS TIME STEP           L**3/T
   ------------------                      ------------------------

                                     IN                                         IN
                                     --                                         --
        PRECIPITATION =        2076620.74          PRECIPITATION =                  
           STREAMFLOW =                               STREAMFLOW =                  
     GW BOUNDARY FLOW =                         GW BOUNDARY FLOW =                  


                                    OUT                                        OUT
                                    ---                                        ---
   EVAPOTRANSPIRATION =        1590666.29     EVAPOTRANSPIRATION =          35186.72
           STREAMFLOW =         502987.86             STREAMFLOW =          12897.50
     GW BOUNDARY FLOW =          40873.22       GW BOUNDARY FLOW =            649.19

   INFLOWS - OUTFLOWS =         -57906.63     INFLOWS - OUTFLOWS =         -48733.41
             --------                                   --------

 TOTAL STORAGE CHANGE =         -53666.25         STORAGE CHANGE =         -48676.39
       --------------                             --------------
         LAND SURFACE =         139443.43           LAND SURFACE =         -82002.01
            SOIL ZONE =        1158027.57              SOIL ZONE =          52036.52
     UNSATURATED ZONE =       -1116579.43       UNSATURATED ZONE =         -13684.24
       SATURATED ZONE =        -234557.81         SATURATED ZONE =          -5026.67

 OVERALL BUDGET ERROR =          -4240.38           BUDGET ERROR =            -57.02


  PERCENT DISCREPANCY =             -0.20    PERCENT DISCREPANCY =             -0.12



1
 SUMMARY VOLUMETRIC BUDGET FOR GSFLOW 
 DATE: 12 09 1980              CUMULATIVE TIME STEP:      70
 MODFLOW STRESS PERIOD      2     CURRENT TIME STEP:      70     ITERATIONS:       7

 -----------------------------------------------------------------------------------

   CUMULATIVE VOLUMES               L**3   RATES FOR THIS TIME STEP           L**3/T
   ------------------                      ------------------------

                                     IN                                         IN
                                     --                                         --
        PRECIPITATION =        4284363.13          PRECIPITATION =                  
           STREAMFLOW =                               STREAMFLOW =                  
     GW BOUNDARY FLOW =                         GW BOUNDARY FLOW =                  


                                    OUT                                        OUT
                                    ---                                        ---
   EVAPOTRANSPIRATION =        1617221.79     EVAPOTRANSPIRATION =           4180.71
           STREAMFLOW =         588545.48             STREAMFLOW =          12698.34
     GW BOUNDARY FLOW =          45418.22       GW BOUNDARY FLOW =            649.39

   INFLOWS - OUTFLOWS =        2033177.64     INFLOWS - OUTFLOWS =         -17528.44
             --------                                   --------

 TOTAL STORAGE CHANGE =        2037877.66         STORAGE CHANGE =         -17459.60
       --------------                             --------------
         LAND SURFACE =        2319000.21           LAND SURFACE =          -4180.71
            SOIL ZONE =        1209338.99              SOIL ZONE =           6887.63
     UNSATURATED ZONE =       -1216109.69       UNSATURATED ZONE =         -14239.92
       SATURATED ZONE =        -274351.84         SATURATED ZONE =          -5926.61

 OVERALL BUDGET ERROR =          -4700.02           BUDGET ERROR =            -68.84


  PERCENT DISCREPANCY =             -0.11    PERCENT DISCREPANCY =             -0.39



1
 SUMMARY VOLUMETRIC BUDGET FOR GSFLOW 
 DATE: 12 16 1980              CUMULATIVE TIME STEP:      77
 MODFLOW STRESS PERIOD      2     CURRENT TIME STEP:      77     ITERATIONS:       7

 -----------------------------------------------------------------------------------

   CUMULATIVE VOLUMES               L**3   RATES FOR THIS TIME STEP           L**3/T
   ------------------                      ------------------------

                                     IN                                         IN
                                     --                                         --
        PRECIPITATION =        4284363.13          PRECIPITATION =                  
           STREAMFLOW =                               STREAMFLOW =                  
     GW BOUNDARY FLOW =                         GW BOUNDARY FLOW =                  


                                    OUT                                        OUT
                                    ---                                        ---
   EVAPOTRANSPIRATION =        1768317.58     EVAPOTRANSPIRATION =          35036.08
           STREAMFLOW =         695506.24             STREAMFLOW =          22579.13
     GW BOUNDARY FLOW =          49965.13       GW BOUNDARY FLOW =            649.99

   INFLOWS - OUTFLOWS =        1770574.18     INFLOWS - OUTFLOWS =         -58265.20
             --------                                   --------

 TOTAL STORAGE CHANGE =        1775705.42         STORAGE CHANGE =         -58201.67
       --------------                             --------------
         LAND SURFACE =        1981773.89           LAND SURFACE =        -138704.98
            SOIL ZONE =        1416245.03              SOIL ZONE =          94789.24
     UNSATURATED ZONE =       -1307299.72       UNSATURATED ZONE =          -9697.24
       SATURATED ZONE =        -315013.79         SATURATED ZONE =          -4588.69

 OVERALL BUDGET ERROR =          -5131.23           BUDGET ERROR =            -63.53


  PERCENT DISCREPANCY =             -0.12    PERCENT DISCREPANCY =             -0.11



1
 SUMMARY VOLUMETRIC BUDGET FOR GSFLOW 
 DATE: 12 23 1980              CUMULATIVE TIME STEP:      84
 MODFLOW STRESS PERIOD      2     CURRENT TIME STEP:      84     ITERATIONS:       9

 -----------------------------------------------------------------------------------

   CUMULATIVE VOLUMES               L**3   RATES FOR THIS TIME STEP           L**3/T
   ------------------                      ------------------------

                                     IN                                         IN
                                     --                                         --
        PRECIPITATION =        4516755.31          PRECIPITATION =                  
           STREAMFLOW =                               STREAMFLOW =                  
     GW BOUNDARY FLOW =                         GW BOUNDARY FLOW =                  


                                    OUT                                        OUT
                                    ---                                        ---
   EVAPOTRANSPIRATION =        1971540.89     EVAPOTRANSPIRATION =          34793.42
           STREAMFLOW =         915922.29             STREAMFLOW =          30356.38
     GW BOUNDARY FLOW =          54524.41       GW BOUNDARY FLOW =            651.87

   INFLOWS - OUTFLOWS =        1574767.72     INFLOWS - OUTFLOWS =         -65801.67
             --------                                   --------

 TOTAL STORAGE CHANGE =        1580161.15         STORAGE CHANGE =         -65765.88
       --------------                             --------------
         LAND SURFACE =        1322941.25           LAND SURFACE =         -52427.68
            SOIL ZONE =        1955301.82              SOIL ZONE =          -2372.78
     UNSATURATED ZONE =       -1354497.64       UNSATURATED ZONE =          -6471.66
       SATURATED ZONE =        -343584.27         SATURATED ZONE =          -4493.75

 OVERALL BUDGET ERROR =          -5393.43           BUDGET ERROR =            -35.80


  PERCENT DISCREPANCY =             -0.12    PERCENT DISCREPANCY =             -0.05



1
 SUMMARY VOLUMETRIC BUDGET FOR GSFLOW 
 DATE: 12 30 1980              CUMULATIVE TIME STEP:      91
 MODFLOW STRESS PERIOD      2     CURRENT TIME STEP:      91     ITERATIONS:      10

 -----------------------------------------------------------------------------------

   CUMULATIVE VOLUMES               L**3   RATES FOR THIS TIME STEP           L**3/T
   ------------------                      ------------------------

                                     IN                                         IN
                                     --                                         --
        PRECIPITATION =        4516755.31          PRECIPITATION =                  
           STREAMFLOW =                               STREAMFLOW =                  
     GW BOUNDARY FLOW =                         GW BOUNDARY FLOW =                  


                                    OUT                                        OUT
                                    ---                                        ---
   EVAPOTRANSPIRATION =        2295328.66     EVAPOTRANSPIRATION =          42681.97
           STREAMFLOW =        1160467.25             STREAMFLOW =          27545.86
     GW BOUNDARY FLOW =          59090.85       GW BOUNDARY FLOW =            652.36

   INFLOWS - OUTFLOWS =        1001868.55     INFLOWS - OUTFLOWS =         -70880.19
             --------                                   --------

 TOTAL STORAGE CHANGE =        1007399.58         STORAGE CHANGE =         -70865.67
       --------------                             --------------
         LAND SURFACE =         528117.98           LAND SURFACE =         -40911.30
            SOIL ZONE =        2219375.40              SOIL ZONE =         -21806.64
     UNSATURATED ZONE =       -1369709.36       UNSATURATED ZONE =          -3686.92
       SATURATED ZONE =        -370384.44         SATURATED ZONE =          -4460.81

 OVERALL BUDGET ERROR =          -5531.03           BUDGET ERROR =            -14.52


  PERCENT DISCREPANCY =             -0.12    PERCENT DISCREPANCY =             -0.02



1
 SUMMARY VOLUMETRIC BUDGET FOR GSFLOW 
 DATE: 01 06 1981              CUMULATIVE TIME STEP:      98
 MODFLOW STRESS PERIOD      2     CURRENT TIME STEP:      98     ITERATIONS:       8

 -----------------------------------------------------------------------------------

   CUMULATIVE VOLUMES               L**3   RATES FOR THIS TIME STEP           L**3/T
   ------------------                      ------------------------

                                     IN                                         IN
                                     --                                         --
        PRECIPITATION =        5004445.82          PRECIPITATION =                  
           STREAMFLOW =                               STREAMFLOW =                  
     GW BOUNDARY FLOW =                         GW BOUNDARY FLOW =                  


                                    OUT                                        OUT
                                    ---                                        ---
   EVAPOTRANSPIRATION =        2508029.56     EVAPOTRANSPIRATION =          21276.28
           STREAMFLOW =        1310193.64             STREAMFLOW =          20226.96
     GW BOUNDARY FLOW =          63651.76       GW BOUNDARY FLOW =            651.10

   INFLOWS - OUTFLOWS =        1122570.86     INFLOWS - OUTFLOWS =         -42154.34
             --------                                   --------

 TOTAL STORAGE CHANGE =        1128247.53         STORAGE CHANGE =         -42123.91
       --------------                             --------------
         LAND SURFACE =         782426.84           LAND SURFACE =         -28312.73
            SOIL ZONE =        2192978.44              SOIL ZONE =           3468.00
     UNSATURATED ZONE =       -1437198.14       UNSATURATED ZONE =         -11307.20
       SATURATED ZONE =        -409959.61         SATURATED ZONE =          -5971.98

 OVERALL BUDGET ERROR =          -5676.67           BUDGET ERROR =            -30.42


  PERCENT DISCREPANCY =             -0.11    PERCENT DISCREPANCY =             -0.07



1
 SUMMARY VOLUMETRIC BUDGET FOR GSFLOW 
 DATE: 01 13 1981              CUMULATIVE TIME STEP:     105
 MODFLOW STRESS PERIOD      2     CURRENT TIME STEP:     105     ITERATIONS:       7

 -----------------------------------------------------------------------------------

   CUMULATIVE VOLUMES               L**3   RATES FOR THIS TIME STEP           L**3/T
   ------------------                      ------------------------

                                     IN                                         IN
                                     --                                         --
        PRECIPITATION =        5004445.82          PRECIPITATION =                  
           STREAMFLOW =                               STREAMFLOW =                  
     GW BOUNDARY FLOW =                         GW BOUNDARY FLOW =                  


                                    OUT                                        OUT
                                    ---                                        ---
   EVAPOTRANSPIRATION =        2714469.31     EVAPOTRANSPIRATION =          42858.50
           STREAMFLOW =        1463086.03             STREAMFLOW =          21866.08
     GW BOUNDARY FLOW =          68208.80       GW BOUNDARY FLOW =            650.95

   INFLOWS - OUTFLOWS =         758681.68     INFLOWS - OUTFLOWS =         -65375.53
             --------                                   --------

 TOTAL STORAGE CHANGE =         764687.81         STORAGE CHANGE =         -65325.82
       --------------                             --------------
         LAND SURFACE =         522879.01           LAND SURFACE =         -42170.36
            SOIL ZONE =        2190020.77              SOIL ZONE =         -10289.07
     UNSATURATED ZONE =       -1495597.99       UNSATURATED ZONE =          -6610.27
       SATURATED ZONE =        -452613.98         SATURATED ZONE =          -6256.12

 OVERALL BUDGET ERROR =          -6006.13           BUDGET ERROR =            -49.72


  PERCENT DISCREPANCY =             -0.12    PERCENT DISCREPANCY =             -0.08



1
 SUMMARY VOLUMETRIC BUDGET FOR GSFLOW 
 DATE: 01 20 1981              CUMULATIVE TIME STEP:     112
 MODFLOW STRESS PERIOD      2     CURRENT TIME STEP:     112     ITERATIONS:       8

 -----------------------------------------------------------------------------------

   CUMULATIVE VOLUMES               L**3   RATES FOR THIS TIME STEP           L**3/T
   ------------------                      ------------------------

                                     IN                                         IN
                                     --                                         --
        PRECIPITATION =        5170468.48          PRECIPITATION =          41503.16
           STREAMFLOW =                               STREAMFLOW =                  
     GW BOUNDARY FLOW =                         GW BOUNDARY FLOW =                  


                                    OUT                                        OUT
                                    ---                                        ---
   EVAPOTRANSPIRATION =        3011329.39     EVAPOTRANSPIRATION =          54394.95
           STREAMFLOW =        1603734.38             STREAMFLOW =          19256.77
     GW BOUNDARY FLOW =          72763.68       GW BOUNDARY FLOW =            650.56

   INFLOWS - OUTFLOWS =         482641.04     INFLOWS - OUTFLOWS =         -32799.11
             --------                                   --------

 TOTAL STORAGE CHANGE =         488911.03         STORAGE CHANGE =         -32765.63
       --------------                             --------------
         LAND SURFACE =         369563.95           LAND SURFACE =           4319.50
            SOIL ZONE =        2147192.40              SOIL ZONE =         -27379.73
     UNSATURATED ZONE =       -1529257.34       UNSATURATED ZONE =          -2853.89
       SATURATED ZONE =        -498587.98         SATURATED ZONE =          -6851.52

 OVERALL BUDGET ERROR =          -6269.99           BUDGET ERROR =            -33.48


  PERCENT DISCREPANCY =             -0.12    PERCENT DISCREPANCY =             -0.05



1
 SUMMARY VOLUMETRIC BUDGET FOR GSFLOW 
 DATE: 01 27 1981              CUMULATIVE TIME STEP:     119
 MODFLOW STRESS PERIOD      2     CURRENT TIME STEP:     119     ITERATIONS:       8

 -----------------------------------------------------------------------------------

   CUMULATIVE VOLUMES               L**3   RATES FOR THIS TIME STEP           L**3/T
   ------------------                      ------------------------

                                     IN                                         IN
                                     --                                         --
        PRECIPITATION =        8646542.90          PRECIPITATION =        2936504.96
           STREAMFLOW =                               STREAMFLOW =                  
     GW BOUNDARY FLOW =                         GW BOUNDARY FLOW =                  


                                    OUT                                        OUT
                                    ---                                        ---
   EVAPOTRANSPIRATION =        3242747.49     EVAPOTRANSPIRATION =          12593.32
           STREAMFLOW =        1734896.52             STREAMFLOW =          17570.43
     GW BOUNDARY FLOW =          77316.57       GW BOUNDARY FLOW =            650.27

   INFLOWS - OUTFLOWS =        3591582.32     INFLOWS - OUTFLOWS =        2905690.94
             --------                                   --------

 TOTAL STORAGE CHANGE =        3598045.14         STORAGE CHANGE =        2905719.58
       --------------                             --------------
         LAND SURFACE =        3518013.96           LAND SURFACE =        2923911.72
            SOIL ZONE =        2168359.41              SOIL ZONE =          -4020.16
     UNSATURATED ZONE =       -1542503.33       UNSATURATED ZONE =          -6941.43
       SATURATED ZONE =        -545824.91         SATURATED ZONE =          -7230.54

 OVERALL BUDGET ERROR =          -6462.82           BUDGET ERROR =            -28.64


  PERCENT DISCREPANCY =             -0.07    PERCENT DISCREPANCY =             -0.00



1
 SUMMARY VOLUMETRIC BUDGET FOR GSFLOW 
 DATE: 02 03 1981              CUMULATIVE TIME STEP:     126
 MODFLOW STRESS PERIOD      2     CURRENT TIME STEP:     126     ITERATIONS:       9

 -----------------------------------------------------------------------------------

   CUMULATIVE VOLUMES               L**3   RATES FOR THIS TIME STEP           L**3/T
   ------------------                      ------------------------

                                     IN                                         IN
                                     --                                         --
        PRECIPITATION =        1.1739D+07          PRECIPITATION =                  
           STREAMFLOW =                               STREAMFLOW =                  
     GW BOUNDARY FLOW =                         GW BOUNDARY FLOW =                  


                                    OUT                                        OUT
                                    ---                                        ---
   EVAPOTRANSPIRATION =        3280095.97     EVAPOTRANSPIRATION =           8130.85
           STREAMFLOW =        1857525.11             STREAMFLOW =          17641.35
     GW BOUNDARY FLOW =          81867.93       GW BOUNDARY FLOW =            650.19

   INFLOWS - OUTFLOWS =        6519208.76     INFLOWS - OUTFLOWS =         -26422.39
             --------                                   --------

 TOTAL STORAGE CHANGE =        6525917.79         STORAGE CHANGE =         -26399.55
       --------------                             --------------
         LAND SURFACE =        6572820.37           LAND SURFACE =          -8130.85
            SOIL ZONE =        2166852.51              SOIL ZONE =            892.81
     UNSATURATED ZONE =       -1614460.90       UNSATURATED ZONE =         -11247.94
       SATURATED ZONE =        -599294.19         SATURATED ZONE =          -7913.57

 OVERALL BUDGET ERROR =          -6709.03           BUDGET ERROR =            -22.84


  PERCENT DISCREPANCY =             -0.06    PERCENT DISCREPANCY =             -0.09



1
 SUMMARY VOLUMETRIC BUDGET FOR GSFLOW 
 DATE: 02 10 1981              CUMULATIVE TIME STEP:     133
 MODFLOW STRESS PERIOD      2     CURRENT TIME STEP:     133     ITERATIONS:       7

 -----------------------------------------------------------------------------------

   CUMULATIVE VOLUMES               L**3   RATES FOR THIS TIME STEP           L**3/T
   ------------------                      ------------------------

                                     IN                                         IN
                                     --                                         --
        PRECIPITATION =        1.1838D+07          PRECIPITATION =                  
           STREAMFLOW =                               STREAMFLOW =                  
     GW BOUNDARY FLOW =                         GW BOUNDARY FLOW =                  


                                    OUT                                        OUT
                                    ---                                        ---
   EVAPOTRANSPIRATION =        3413898.32     EVAPOTRANSPIRATION =          34657.17
           STREAMFLOW =        1982056.55             STREAMFLOW =          17867.62
     GW BOUNDARY FLOW =          86419.35       GW BOUNDARY FLOW =            650.20

   INFLOWS - OUTFLOWS =        6355889.01     INFLOWS - OUTFLOWS =         -53174.99
             --------                                   --------

 TOTAL STORAGE CHANGE =        6362882.83         STORAGE CHANGE =         -53110.42
       --------------                             --------------
         LAND SURFACE =        6538583.48           LAND SURFACE =         -34657.17
            SOIL ZONE =        2172463.04              SOIL ZONE =            719.56
     UNSATURATED ZONE =       -1691068.38       UNSATURATED ZONE =         -10662.33
       SATURATED ZONE =        -657095.31         SATURATED ZONE =          -8510.47

 OVERALL BUDGET ERROR =          -6993.82           BUDGET ERROR =            -64.57


  PERCENT DISCREPANCY =             -0.06    PERCENT DISCREPANCY =             -0.12



1
 SUMMARY VOLUMETRIC BUDGET FOR GSFLOW 
 DATE: 02 17 1981              CUMULATIVE TIME STEP:     140
 MODFLOW STRESS PERIOD      2     CURRENT TIME STEP:     140     ITERATIONS:      14

 -----------------------------------------------------------------------------------

   CUMULATIVE VOLUMES               L**3   RATES FOR THIS TIME STEP           L**3/T
   ------------------                      ------------------------

                                     IN                                         IN
                                     --                                         --
        PRECIPITATION =        1.2765D+07          PRECIPITATION =          68928.68
           STREAMFLOW =                               STREAMFLOW =                  
     GW BOUNDARY FLOW =                         GW BOUNDARY FLOW =                  


                                    OUT                                        OUT
                                    ---                                        ---
   EVAPOTRANSPIRATION =        3757094.85     EVAPOTRANSPIRATION =          68123.96
           STREAMFLOW =        2503655.65             STREAMFLOW =         124378.12
     GW BOUNDARY FLOW =          90991.97       GW BOUNDARY FLOW =            656.69

   INFLOWS - OUTFLOWS =        6413238.20     INFLOWS - OUTFLOWS =        -124230.09
             --------                                   --------

 TOTAL STORAGE CHANGE =        6420450.85         STORAGE CHANGE =        -124222.59
       --------------                             --------------
         LAND SURFACE =        5590261.11           LAND SURFACE =        -287581.15
            SOIL ZONE =        2960969.65              SOIL ZONE =          83251.51
     UNSATURATED ZONE =       -1454323.64       UNSATURATED ZONE =          78136.64
       SATURATED ZONE =        -676456.27         SATURATED ZONE =           1970.41

 OVERALL BUDGET ERROR =          -7212.65           BUDGET ERROR =             -7.50


  PERCENT DISCREPANCY =             -0.06    PERCENT DISCREPANCY =             -0.00



1
 SUMMARY VOLUMETRIC BUDGET FOR GSFLOW 
 DATE: 02 24 1981              CUMULATIVE TIME STEP:     147
 MODFLOW STRESS PERIOD      2     CURRENT TIME STEP:     147     ITERATIONS:      14

 -----------------------------------------------------------------------------------

   CUMULATIVE VOLUMES               L**3   RATES FOR THIS TIME STEP           L**3/T
   ------------------                      ------------------------

                                     IN                                         IN
                                     --                                         --
        PRECIPITATION =        1.3179D+07          PRECIPITATION =         344647.71
           STREAMFLOW =                               STREAMFLOW =                  
     GW BOUNDARY FLOW =                         GW BOUNDARY FLOW =                  


                                    OUT                                        OUT
                                    ---                                        ---
   EVAPOTRANSPIRATION =        4105956.41     EVAPOTRANSPIRATION =          19832.91
           STREAMFLOW =        3089719.67             STREAMFLOW =          53105.07
     GW BOUNDARY FLOW =          95586.95       GW BOUNDARY FLOW =            655.42

   INFLOWS - OUTFLOWS =        5887295.42     INFLOWS - OUTFLOWS =         271054.31
             --------                                   --------

 TOTAL STORAGE CHANGE =        5894407.35         STORAGE CHANGE =         271035.81
       --------------                             --------------
         LAND SURFACE =        4910532.85           LAND SURFACE =         300250.03
            SOIL ZONE =        2709519.13              SOIL ZONE =         -63351.80
     UNSATURATED ZONE =       -1073107.31       UNSATURATED ZONE =          31394.97
       SATURATED ZONE =        -652537.32         SATURATED ZONE =           2742.61

 OVERALL BUDGET ERROR =          -7111.93           BUDGET ERROR =             18.50


  PERCENT DISCREPANCY =             -0.05    PERCENT DISCREPANCY =              0.01



1
 SUMMARY VOLUMETRIC BUDGET FOR GSFLOW 
 DATE: 03 03 1981              CUMULATIVE TIME STEP:     154
 MODFLOW STRESS PERIOD      2     CURRENT TIME STEP:     154     ITERATIONS:      11

 -----------------------------------------------------------------------------------

   CUMULATIVE VOLUMES               L**3   RATES FOR THIS TIME STEP           L**3/T
   ------------------                      ------------------------

                                     IN                                         IN
                                     --                                         --
        PRECIPITATION =        1.3447D+07          PRECIPITATION =                  
           STREAMFLOW =                               STREAMFLOW =                  
     GW BOUNDARY FLOW =                         GW BOUNDARY FLOW =                  


                                    OUT                                        OUT
                                    ---                                        ---
   EVAPOTRANSPIRATION =        4268579.52     EVAPOTRANSPIRATION =          44519.47
           STREAMFLOW =        3315776.28             STREAMFLOW =          27469.01
     GW BOUNDARY FLOW =         100160.41       GW BOUNDARY FLOW =            652.32

   INFLOWS - OUTFLOWS =        5762102.59     INFLOWS - OUTFLOWS =         -72640.80
             --------                                   --------

 TOTAL STORAGE CHANGE =        5769074.29         STORAGE CHANGE =         -72663.06
       --------------                             --------------
         LAND SURFACE =        4996533.86           LAND SURFACE =         -62583.85
            SOIL ZONE =        2487787.46              SOIL ZONE =            516.90
     UNSATURATED ZONE =       -1059275.41       UNSATURATED ZONE =          -8440.42
       SATURATED ZONE =        -655971.61         SATURATED ZONE =          -2155.69

 OVERALL BUDGET ERROR =          -6971.71           BUDGET ERROR =             22.26


  PERCENT DISCREPANCY =             -0.05    PERCENT DISCREPANCY =              0.03



1
 SUMMARY VOLUMETRIC BUDGET FOR GSFLOW 
 DATE: 03 10 1981              CUMULATIVE TIME STEP:     161
 MODFLOW STRESS PERIOD      2     CURRENT TIME STEP:     161     ITERATIONS:      11

 -----------------------------------------------------------------------------------

   CUMULATIVE VOLUMES               L**3   RATES FOR THIS TIME STEP           L**3/T
   ------------------                      ------------------------

                                     IN                                         IN
                                     --                                         --
        PRECIPITATION =        1.3493D+07          PRECIPITATION =                  
           STREAMFLOW =                               STREAMFLOW =                  
     GW BOUNDARY FLOW =                         GW BOUNDARY FLOW =                  


                                    OUT                                        OUT
                                    ---                                        ---
   EVAPOTRANSPIRATION =        4585979.65     EVAPOTRANSPIRATION =          63233.73
           STREAMFLOW =        3555158.32             STREAMFLOW =          44887.95
     GW BOUNDARY FLOW =         104726.81       GW BOUNDARY FLOW =            653.02

   INFLOWS - OUTFLOWS =        5247089.74     INFLOWS - OUTFLOWS =        -108774.70
             --------                                   --------

 TOTAL STORAGE CHANGE =        5253941.94         STORAGE CHANGE =        -108795.46
       --------------                             --------------
         LAND SURFACE =        4326688.01           LAND SURFACE =        -164624.67
            SOIL ZONE =        2617055.89              SOIL ZONE =          33559.01
     UNSATURATED ZONE =       -1022238.27       UNSATURATED ZONE =          22439.28
       SATURATED ZONE =        -667563.69         SATURATED ZONE =           -169.08

 OVERALL BUDGET ERROR =          -6852.20           BUDGET ERROR =             20.76


  PERCENT DISCREPANCY =             -0.05    PERCENT DISCREPANCY =              0.02



1
 SUMMARY VOLUMETRIC BUDGET FOR GSFLOW 
 DATE: 03 17 1981              CUMULATIVE TIME STEP:     168
 MODFLOW STRESS PERIOD      2     CURRENT TIME STEP:     168     ITERATIONS:       9

 -----------------------------------------------------------------------------------

   CUMULATIVE VOLUMES               L**3   RATES FOR THIS TIME STEP           L**3/T
   ------------------                      ------------------------

                                     IN                                         IN
                                     --                                         --
        PRECIPITATION =        1.3745D+07          PRECIPITATION =                  
           STREAMFLOW =                               STREAMFLOW =                  
     GW BOUNDARY FLOW =                         GW BOUNDARY FLOW =                  


                                    OUT                                        OUT
                                    ---                                        ---
   EVAPOTRANSPIRATION =        4942525.28     EVAPOTRANSPIRATION =          39557.19
           STREAMFLOW =        3789684.60             STREAMFLOW =          24393.53
     GW BOUNDARY FLOW =         109295.10       GW BOUNDARY FLOW =            652.00

   INFLOWS - OUTFLOWS =        4902997.84     INFLOWS - OUTFLOWS =         -64602.72
             --------                                   --------

 TOTAL STORAGE CHANGE =        4909718.06         STORAGE CHANGE =         -64613.87
       --------------                             --------------
         LAND SURFACE =        4148017.87           LAND SURFACE =         -39206.25
            SOIL ZONE =        2436461.93              SOIL ZONE =          -5650.02
     UNSATURATED ZONE =        -992823.27       UNSATURATED ZONE =         -15651.93
       SATURATED ZONE =        -681938.47         SATURATED ZONE =          -4105.67

 OVERALL BUDGET ERROR =          -6720.22           BUDGET ERROR =             11.15


  PERCENT DISCREPANCY =             -0.05    PERCENT DISCREPANCY =              0.02



1
 SUMMARY VOLUMETRIC BUDGET FOR GSFLOW 
 DATE: 03 24 1981              CUMULATIVE TIME STEP:     175
 MODFLOW STRESS PERIOD      2     CURRENT TIME STEP:     175     ITERATIONS:       9

 -----------------------------------------------------------------------------------

   CUMULATIVE VOLUMES               L**3   RATES FOR THIS TIME STEP           L**3/T
   ------------------                      ------------------------

                                     IN                                         IN
                                     --                                         --
        PRECIPITATION =        1.4367D+07          PRECIPITATION =                  
           STREAMFLOW =                               STREAMFLOW =                  
     GW BOUNDARY FLOW =                         GW BOUNDARY FLOW =                  


                                    OUT                                        OUT
                                    ---                                        ---
   EVAPOTRANSPIRATION =        5295597.72     EVAPOTRANSPIRATION =          85696.82
           STREAMFLOW =        3961260.43             STREAMFLOW =          27180.97
     GW BOUNDARY FLOW =         113855.61       GW BOUNDARY FLOW =            651.44

   INFLOWS - OUTFLOWS =        4996042.48     INFLOWS - OUTFLOWS =        -113529.23
             --------                                   --------

 TOTAL STORAGE CHANGE =        5002733.32         STORAGE CHANGE =        -113531.85
       --------------                             --------------
         LAND SURFACE =        4458824.20           LAND SURFACE =         -75469.20
            SOIL ZONE =        2333463.75              SOIL ZONE =         -28562.87
     UNSATURATED ZONE =       -1073809.13       UNSATURATED ZONE =          -4504.29
       SATURATED ZONE =        -715745.50         SATURATED ZONE =          -4995.48

 OVERALL BUDGET ERROR =          -6690.83           BUDGET ERROR =              2.62


  PERCENT DISCREPANCY =             -0.05    PERCENT DISCREPANCY =              0.00



1
 SUMMARY VOLUMETRIC BUDGET FOR GSFLOW 
 DATE: 03 31 1981              CUMULATIVE TIME STEP:     182
 MODFLOW STRESS PERIOD      2     CURRENT TIME STEP:     182     ITERATIONS:      12

 -----------------------------------------------------------------------------------

   CUMULATIVE VOLUMES               L**3   RATES FOR THIS TIME STEP           L**3/T
   ------------------                      ------------------------

                                     IN                                         IN
                                     --                                         --
        PRECIPITATION =        1.5777D+07          PRECIPITATION =                  
           STREAMFLOW =                               STREAMFLOW =                  
     GW BOUNDARY FLOW =                         GW BOUNDARY FLOW =                  


                                    OUT                                        OUT
                                    ---                                        ---
   EVAPOTRANSPIRATION =        5721107.07     EVAPOTRANSPIRATION =          55421.24
           STREAMFLOW =        4440056.86             STREAMFLOW =          35752.76
     GW BOUNDARY FLOW =         118436.00       GW BOUNDARY FLOW =            653.43

   INFLOWS - OUTFLOWS =        5497166.26     INFLOWS - OUTFLOWS =         -91827.42
             --------                                   --------

 TOTAL STORAGE CHANGE =        5503758.08         STORAGE CHANGE =         -91851.87
       --------------                             --------------
         LAND SURFACE =        4579094.40           LAND SURFACE =         -56225.52
            SOIL ZONE =        2512241.65              SOIL ZONE =         -36685.33
     UNSATURATED ZONE =        -874384.73       UNSATURATED ZONE =           2357.79
       SATURATED ZONE =        -713193.24         SATURATED ZONE =          -1298.81

 OVERALL BUDGET ERROR =          -6591.83           BUDGET ERROR =             24.45


  PERCENT DISCREPANCY =             -0.04    PERCENT DISCREPANCY =              0.03



1
 SUMMARY VOLUMETRIC BUDGET FOR GSFLOW 
 DATE: 04 07 1981              CUMULATIVE TIME STEP:     189
 MODFLOW STRESS PERIOD      2     CURRENT TIME STEP:     189     ITERATIONS:      10

 -----------------------------------------------------------------------------------

   CUMULATIVE VOLUMES               L**3   RATES FOR THIS TIME STEP           L**3/T
   ------------------                      ------------------------

                                     IN                                         IN
                                     --                                         --
        PRECIPITATION =        1.6121D+07          PRECIPITATION =                  
           STREAMFLOW =                               STREAMFLOW =                  
     GW BOUNDARY FLOW =                         GW BOUNDARY FLOW =                  


                                    OUT                                        OUT
                                    ---                                        ---
   EVAPOTRANSPIRATION =        6366711.66     EVAPOTRANSPIRATION =         106275.95
           STREAMFLOW =        4759738.43             STREAMFLOW =          44461.86
     GW BOUNDARY FLOW =         123011.26       GW BOUNDARY FLOW =            653.84

   INFLOWS - OUTFLOWS =        4872021.80     INFLOWS - OUTFLOWS =        -151391.65
             --------                                   --------

 TOTAL STORAGE CHANGE =        4878447.78         STORAGE CHANGE =        -151429.55
       --------------                             --------------
         LAND SURFACE =        3930700.65           LAND SURFACE =        -143307.15
            SOIL ZONE =        2462522.93              SOIL ZONE =         -19514.00
     UNSATURATED ZONE =        -802553.78       UNSATURATED ZONE =          10938.83
       SATURATED ZONE =        -712222.02         SATURATED ZONE =            452.77

 OVERALL BUDGET ERROR =          -6425.98           BUDGET ERROR =             37.91


  PERCENT DISCREPANCY =             -0.04    PERCENT DISCREPANCY =              0.03



1
 SUMMARY VOLUMETRIC BUDGET FOR GSFLOW 
 DATE: 04 14 1981              CUMULATIVE TIME STEP:     196
 MODFLOW STRESS PERIOD      2     CURRENT TIME STEP:     196     ITERATIONS:      13

 -----------------------------------------------------------------------------------

   CUMULATIVE VOLUMES               L**3   RATES FOR THIS TIME STEP           L**3/T
   ------------------                      ------------------------

                                     IN                                         IN
                                     --                                         --
        PRECIPITATION =        1.6121D+07          PRECIPITATION =                  
           STREAMFLOW =                               STREAMFLOW =                  
     GW BOUNDARY FLOW =                         GW BOUNDARY FLOW =                  


                                    OUT                                        OUT
                                    ---                                        ---
   EVAPOTRANSPIRATION =        7293742.70     EVAPOTRANSPIRATION =         190847.08
           STREAMFLOW =        5084079.63             STREAMFLOW =          53616.11
     GW BOUNDARY FLOW =         127586.53       GW BOUNDARY FLOW =            653.52

   INFLOWS - OUTFLOWS =        3616074.28     INFLOWS - OUTFLOWS =        -245116.71
             --------                                   --------

 TOTAL STORAGE CHANGE =        3622307.07         STORAGE CHANGE =        -245134.97
       --------------                             --------------
         LAND SURFACE =        2667146.58           LAND SURFACE =        -251238.97
            SOIL ZONE =        2377284.17              SOIL ZONE =         -13864.58
     UNSATURATED ZONE =        -715312.23       UNSATURATED ZONE =          18085.24
       SATURATED ZONE =        -706811.45         SATURATED ZONE =           1883.33

 OVERALL BUDGET ERROR =          -6232.79           BUDGET ERROR =             18.26


  PERCENT DISCREPANCY =             -0.04    PERCENT DISCREPANCY =              0.01



1
 SUMMARY VOLUMETRIC BUDGET FOR GSFLOW 
 DATE: 04 21 1981              CUMULATIVE TIME STEP:     203
 MODFLOW STRESS PERIOD      2     CURRENT TIME STEP:     203     ITERATIONS:      13

 -----------------------------------------------------------------------------------

   CUMULATIVE VOLUMES               L**3   RATES FOR THIS TIME STEP           L**3/T
   ------------------                      ------------------------

                                     IN                                         IN
                                     --                                         --
        PRECIPITATION =        1.6310D+07          PRECIPITATION =                  
           STREAMFLOW =                               STREAMFLOW =                  
     GW BOUNDARY FLOW =                         GW BOUNDARY FLOW =                  


                                    OUT                                        OUT
                                    ---                                        ---
   EVAPOTRANSPIRATION =        8371791.51     EVAPOTRANSPIRATION =         153968.72
           STREAMFLOW =        5413087.73             STREAMFLOW =          44446.83
     GW BOUNDARY FLOW =         132156.68       GW BOUNDARY FLOW =            652.47

   INFLOWS - OUTFLOWS =        2393221.49     INFLOWS - OUTFLOWS =        -199068.02
             --------                                   --------

 TOTAL STORAGE CHANGE =        2399290.08         STORAGE CHANGE =        -199094.25
       --------------                             --------------
         LAND SURFACE =        1475497.93           LAND SURFACE =        -123356.74
            SOIL ZONE =        2214804.01              SOIL ZONE =         -94653.49
     UNSATURATED ZONE =        -599261.42       UNSATURATED ZONE =          16396.44
       SATURATED ZONE =        -691750.45         SATURATED ZONE =           2519.54

 OVERALL BUDGET ERROR =          -6068.58           BUDGET ERROR =             26.22


  PERCENT DISCREPANCY =             -0.04    PERCENT DISCREPANCY =              0.01



1
 SUMMARY VOLUMETRIC BUDGET FOR GSFLOW 
 DATE: 04 28 1981              CUMULATIVE TIME STEP:     210
 MODFLOW STRESS PERIOD      2     CURRENT TIME STEP:     210     ITERATIONS:      14

 -----------------------------------------------------------------------------------

   CUMULATIVE VOLUMES               L**3   RATES FOR THIS TIME STEP           L**3/T
   ------------------                      ------------------------

                                     IN                                         IN
                                     --                                         --
        PRECIPITATION =        1.6515D+07          PRECIPITATION =                  
           STREAMFLOW =                               STREAMFLOW =                  
     GW BOUNDARY FLOW =                         GW BOUNDARY FLOW =                  


                                    OUT                                        OUT
                                    ---                                        ---
   EVAPOTRANSPIRATION =        9621829.24     EVAPOTRANSPIRATION =         200800.28
           STREAMFLOW =        5614772.14             STREAMFLOW =          22385.39
     GW BOUNDARY FLOW =         136715.08       GW BOUNDARY FLOW =            650.29

   INFLOWS - OUTFLOWS =        1142130.49     INFLOWS - OUTFLOWS =        -223835.95
             --------                                   --------

 TOTAL STORAGE CHANGE =        1148035.88         STORAGE CHANGE =        -223855.03
       --------------                             --------------
         LAND SURFACE =         739921.12           LAND SURFACE =         -83391.05
            SOIL ZONE =        1694934.18              SOIL ZONE =        -134799.46
     UNSATURATED ZONE =        -595401.56       UNSATURATED ZONE =          -4768.09
       SATURATED ZONE =        -691417.87         SATURATED ZONE =           -896.43

 OVERALL BUDGET ERROR =          -5905.39           BUDGET ERROR =             19.08


  PERCENT DISCREPANCY =             -0.04    PERCENT DISCREPANCY =              0.01



1
 SUMMARY VOLUMETRIC BUDGET FOR GSFLOW 
 DATE: 05 05 1981              CUMULATIVE TIME STEP:     217
 MODFLOW STRESS PERIOD      2     CURRENT TIME STEP:     217     ITERATIONS:      14

 -----------------------------------------------------------------------------------

   CUMULATIVE VOLUMES               L**3   RATES FOR THIS TIME STEP           L**3/T
   ------------------                      ------------------------

                                     IN                                         IN
                                     --                                         --
        PRECIPITATION =        1.6515D+07          PRECIPITATION =                  
           STREAMFLOW =                               STREAMFLOW =                  
     GW BOUNDARY FLOW =                         GW BOUNDARY FLOW =                  


                                    OUT                                        OUT
                                    ---                                        ---
   EVAPOTRANSPIRATION =        1.0517D+07     EVAPOTRANSPIRATION =          57479.84
           STREAMFLOW =        5711361.21             STREAMFLOW =          10086.91
     GW BOUNDARY FLOW =         141260.23       GW BOUNDARY FLOW =            648.67

   INFLOWS - OUTFLOWS =         145476.22     INFLOWS - OUTFLOWS =         -68215.42
             --------                                   --------

 TOTAL STORAGE CHANGE =         151273.23         STORAGE CHANGE =         -68221.81
       --------------                             --------------
         LAND SURFACE =         388549.28           LAND SURFACE =         -18599.62
            SOIL ZONE =        1160792.25              SOIL ZONE =         -30550.89
     UNSATURATED ZONE =        -689385.56       UNSATURATED ZONE =         -16032.25
       SATURATED ZONE =        -708682.73         SATURATED ZONE =          -3039.05

 OVERALL BUDGET ERROR =          -5797.01           BUDGET ERROR =              6.39


  PERCENT DISCREPANCY =             -0.04    PERCENT DISCREPANCY =              0.01



1
 SUMMARY VOLUMETRIC BUDGET FOR GSFLOW 
 DATE: 05 12 1981              CUMULATIVE TIME STEP:     224
 MODFLOW STRESS PERIOD      2     CURRENT TIME STEP:     224     ITERATIONS:      11

 -----------------------------------------------------------------------------------

   CUMULATIVE VOLUMES               L**3   RATES FOR THIS TIME STEP           L**3/T
   ------------------                      ------------------------

                                     IN                                         IN
                                     --                                         --
        PRECIPITATION =        1.6515D+07          PRECIPITATION =                  
           STREAMFLOW =                               STREAMFLOW =                  
     GW BOUNDARY FLOW =                         GW BOUNDARY FLOW =                  


                                    OUT                                        OUT
                                    ---                                        ---
   EVAPOTRANSPIRATION =        1.1037D+07     EVAPOTRANSPIRATION =          93883.50
           STREAMFLOW =        5779058.47             STREAMFLOW =          10190.35
     GW BOUNDARY FLOW =         145798.28       GW BOUNDARY FLOW =            648.16

   INFLOWS - OUTFLOWS =        -446725.76     INFLOWS - OUTFLOWS =        -104722.01
             --------                                   --------

 TOTAL STORAGE CHANGE =        -441025.52         STORAGE CHANGE =        -104736.07
       --------------                             --------------
         LAND SURFACE =         230822.31           LAND SURFACE =         -27784.86
            SOIL ZONE =         861022.77              SOIL ZONE =         -58525.88
     UNSATURATED ZONE =        -792576.73       UNSATURATED ZONE =         -12954.40
       SATURATED ZONE =        -740293.88         SATURATED ZONE =          -5470.93

 OVERALL BUDGET ERROR =          -5700.24           BUDGET ERROR =             14.06


  PERCENT DISCREPANCY =             -0.03    PERCENT DISCREPANCY =              0.01



1
 SUMMARY VOLUMETRIC BUDGET FOR GSFLOW 
 DATE: 05 19 1981              CUMULATIVE TIME STEP:     231
 MODFLOW STRESS PERIOD      2     CURRENT TIME STEP:     231     ITERATIONS:      14

 -----------------------------------------------------------------------------------

   CUMULATIVE VOLUMES               L**3   RATES FOR THIS TIME STEP           L**3/T
   ------------------                      ------------------------

                                     IN                                         IN
                                     --                                         --
        PRECIPITATION =        1.7837D+07          PRECIPITATION =         169047.83
           STREAMFLOW =                               STREAMFLOW =                  
     GW BOUNDARY FLOW =                         GW BOUNDARY FLOW =                  


                                    OUT                                        OUT
                                    ---                                        ---
   EVAPOTRANSPIRATION =        1.1444D+07     EVAPOTRANSPIRATION =          34209.10
           STREAMFLOW =        5897588.76             STREAMFLOW =          21670.48
     GW BOUNDARY FLOW =         150337.20       GW BOUNDARY FLOW =            649.26

   INFLOWS - OUTFLOWS =         345289.96     INFLOWS - OUTFLOWS =         112518.99
             --------                                   --------

 TOTAL STORAGE CHANGE =         350925.36         STORAGE CHANGE =         112509.07
       --------------                             --------------
         LAND SURFACE =         197020.78           LAND SURFACE =          20526.22
            SOIL ZONE =        1794272.27              SOIL ZONE =         100538.41
     UNSATURATED ZONE =        -857326.08       UNSATURATED ZONE =          -1953.66
       SATURATED ZONE =        -783041.61         SATURATED ZONE =          -6601.90

 OVERALL BUDGET ERROR =          -5635.40           BUDGET ERROR =              9.91


  PERCENT DISCREPANCY =             -0.03    PERCENT DISCREPANCY =              0.01



1
 SUMMARY VOLUMETRIC BUDGET FOR GSFLOW 
 DATE: 05 26 1981              CUMULATIVE TIME STEP:     238
 MODFLOW STRESS PERIOD      2     CURRENT TIME STEP:     238     ITERATIONS:      16

 -----------------------------------------------------------------------------------

   CUMULATIVE VOLUMES               L**3   RATES FOR THIS TIME STEP           L**3/T
   ------------------                      ------------------------

                                     IN                                         IN
                                     --                                         --
        PRECIPITATION =        1.8252D+07          PRECIPITATION =         284301.98
           STREAMFLOW =                               STREAMFLOW =                  
     GW BOUNDARY FLOW =                         GW BOUNDARY FLOW =                  


                                    OUT                                        OUT
                                    ---                                        ---
   EVAPOTRANSPIRATION =        1.2354D+07     EVAPOTRANSPIRATION =         145739.43
           STREAMFLOW =        5997124.15             STREAMFLOW =          17742.95
     GW BOUNDARY FLOW =         154876.97       GW BOUNDARY FLOW =            648.36

   INFLOWS - OUTFLOWS =        -253786.45     INFLOWS - OUTFLOWS =         120171.24
             --------                                   --------

 TOTAL STORAGE CHANGE =        -248201.24         STORAGE CHANGE =         120170.93
       --------------                             --------------
         LAND SURFACE =         119259.48           LAND SURFACE =          -7679.45
            SOIL ZONE =        1386036.33              SOIL ZONE =         145524.92
     UNSATURATED ZONE =        -919902.29       UNSATURATED ZONE =         -10745.62
       SATURATED ZONE =        -833594.76         SATURATED ZONE =          -6928.92

 OVERALL BUDGET ERROR =          -5585.21           BUDGET ERROR =              0.31


  PERCENT DISCREPANCY =             -0.03    PERCENT DISCREPANCY =              0.00



1
 SUMMARY VOLUMETRIC BUDGET FOR GSFLOW 
 DATE: 06 02 1981              CUMULATIVE TIME STEP:     245
 MODFLOW STRESS PERIOD      2     CURRENT TIME STEP:     245     ITERATIONS:      12

 -----------------------------------------------------------------------------------

   CUMULATIVE VOLUMES               L**3   RATES FOR THIS TIME STEP           L**3/T
   ------------------                      ------------------------

                                     IN                                         IN
                                     --                                         --
        PRECIPITATION =        1.8318D+07          PRECIPITATION =          50867.39
           STREAMFLOW =                               STREAMFLOW =                  
     GW BOUNDARY FLOW =                         GW BOUNDARY FLOW =                  


                                    OUT                                        OUT
                                    ---                                        ---
   EVAPOTRANSPIRATION =        1.3144D+07     EVAPOTRANSPIRATION =          74664.29
           STREAMFLOW =        6062778.86             STREAMFLOW =           7537.24
     GW BOUNDARY FLOW =         159411.59       GW BOUNDARY FLOW =            647.42

   INFLOWS - OUTFLOWS =       -1048304.85     INFLOWS - OUTFLOWS =         -31981.56
             --------                                   --------

 TOTAL STORAGE CHANGE =       -1042747.61         STORAGE CHANGE =         -31986.83
       --------------                             --------------
         LAND SURFACE =          74877.45           LAND SURFACE =          28709.78
            SOIL ZONE =         778191.52              SOIL ZONE =         -39244.62
     UNSATURATED ZONE =       -1003951.10       UNSATURATED ZONE =         -12601.05
       SATURATED ZONE =        -891865.47         SATURATED ZONE =          -8850.94

 OVERALL BUDGET ERROR =          -5557.24           BUDGET ERROR =              5.27


  PERCENT DISCREPANCY =             -0.03    PERCENT DISCREPANCY =              0.01



1
 SUMMARY VOLUMETRIC BUDGET FOR GSFLOW 
 DATE: 06 09 1981              CUMULATIVE TIME STEP:     252
 MODFLOW STRESS PERIOD      2     CURRENT TIME STEP:     252     ITERATIONS:      15

 -----------------------------------------------------------------------------------

   CUMULATIVE VOLUMES               L**3   RATES FOR THIS TIME STEP           L**3/T
   ------------------                      ------------------------

                                     IN                                         IN
                                     --                                         --
        PRECIPITATION =        1.8318D+07          PRECIPITATION =                  
           STREAMFLOW =                               STREAMFLOW =                  
     GW BOUNDARY FLOW =                         GW BOUNDARY FLOW =                  


                                    OUT                                        OUT
                                    ---                                        ---
   EVAPOTRANSPIRATION =        1.3612D+07     EVAPOTRANSPIRATION =          50188.89
           STREAMFLOW =        6109439.47             STREAMFLOW =           6295.92
     GW BOUNDARY FLOW =         163941.58       GW BOUNDARY FLOW =            646.99

   INFLOWS - OUTFLOWS =       -1567321.54     INFLOWS - OUTFLOWS =         -57131.79
             --------                                   --------

 TOTAL STORAGE CHANGE =       -1561753.94         STORAGE CHANGE =         -57135.97
       --------------                             --------------
         LAND SURFACE =          13019.20           LAND SURFACE =          -2935.65
            SOIL ZONE =         474805.03              SOIL ZONE =         -32138.17
     UNSATURATED ZONE =       -1092181.26       UNSATURATED ZONE =         -12453.48
       SATURATED ZONE =        -957396.92         SATURATED ZONE =          -9608.69

 OVERALL BUDGET ERROR =          -5567.60           BUDGET ERROR =              4.18


  PERCENT DISCREPANCY =             -0.03    PERCENT DISCREPANCY =              0.01



1
 SUMMARY VOLUMETRIC BUDGET FOR GSFLOW 
 DATE: 06 16 1981              CUMULATIVE TIME STEP:     259
 MODFLOW STRESS PERIOD      2     CURRENT TIME STEP:     259     ITERATIONS:      13

 -----------------------------------------------------------------------------------

   CUMULATIVE VOLUMES               L**3   RATES FOR THIS TIME STEP           L**3/T
   ------------------                      ------------------------

                                     IN                                         IN
                                     --                                         --
        PRECIPITATION =        1.8318D+07          PRECIPITATION =                  
           STREAMFLOW =                               STREAMFLOW =                  
     GW BOUNDARY FLOW =                         GW BOUNDARY FLOW =                  


                                    OUT                                        OUT
                                    ---                                        ---
   EVAPOTRANSPIRATION =        1.3799D+07     EVAPOTRANSPIRATION =          41393.30
           STREAMFLOW =        6152274.18             STREAMFLOW =           6054.64
     GW BOUNDARY FLOW =         168469.52       GW BOUNDARY FLOW =            646.76

   INFLOWS - OUTFLOWS =       -1801511.23     INFLOWS - OUTFLOWS =         -48094.70
             --------                                   --------

 TOTAL STORAGE CHANGE =       -1795965.22         STORAGE CHANGE =         -48098.45
       --------------                             --------------
         LAND SURFACE =           5883.13           LAND SURFACE =          -1269.40
            SOIL ZONE =         400848.98              SOIL ZONE =         -25084.20
     UNSATURATED ZONE =       -1177433.89       UNSATURATED ZONE =         -12070.18
       SATURATED ZONE =       -1025263.45         SATURATED ZONE =          -9674.66

 OVERALL BUDGET ERROR =          -5546.01           BUDGET ERROR =              3.75


  PERCENT DISCREPANCY =             -0.03    PERCENT DISCREPANCY =              0.01



1
 SUMMARY VOLUMETRIC BUDGET FOR GSFLOW 
 DATE: 06 23 1981              CUMULATIVE TIME STEP:     266
 MODFLOW STRESS PERIOD      2     CURRENT TIME STEP:     266     ITERATIONS:      11

 -----------------------------------------------------------------------------------

   CUMULATIVE VOLUMES               L**3   RATES FOR THIS TIME STEP           L**3/T
   ------------------                      ------------------------

                                     IN                                         IN
                                     --                                         --
        PRECIPITATION =        1.8318D+07          PRECIPITATION =                  
           STREAMFLOW =                               STREAMFLOW =                  
     GW BOUNDARY FLOW =                         GW BOUNDARY FLOW =                  


                                    OUT                                        OUT
                                    ---                                        ---
   EVAPOTRANSPIRATION =        1.4075D+07     EVAPOTRANSPIRATION =          30908.80
           STREAMFLOW =        6193983.46             STREAMFLOW =           5904.02
     GW BOUNDARY FLOW =         172996.35       GW BOUNDARY FLOW =            646.77

   INFLOWS - OUTFLOWS =       -2124064.51     INFLOWS - OUTFLOWS =         -37459.58
             --------                                   --------

 TOTAL STORAGE CHANGE =       -2118537.28         STORAGE CHANGE =         -37460.07
       --------------                             --------------
         LAND SURFACE =                             LAND SURFACE =                  
            SOIL ZONE =         235246.54              SOIL ZONE =         -15995.19
     UNSATURATED ZONE =       -1258673.00       UNSATURATED ZONE =         -11211.35
       SATURATED ZONE =       -1095110.82         SATURATED ZONE =         -10253.53

 OVERALL BUDGET ERROR =          -5527.23           BUDGET ERROR =              0.49


  PERCENT DISCREPANCY =             -0.03    PERCENT DISCREPANCY =              0.00



1
 SUMMARY VOLUMETRIC BUDGET FOR GSFLOW 
 DATE: 06 30 1981              CUMULATIVE TIME STEP:     273
 MODFLOW STRESS PERIOD      2     CURRENT TIME STEP:     273     ITERATIONS:      13

 -----------------------------------------------------------------------------------

   CUMULATIVE VOLUMES               L**3   RATES FOR THIS TIME STEP           L**3/T
   ------------------                      ------------------------

                                     IN                                         IN
[...]
                                    ---                                        ---
   EVAPOTRANSPIRATION =        2.9268D+08     EVAPOTRANSPIRATION =          33093.96
           STREAMFLOW =        1.7735D+08             STREAMFLOW =           6835.05
     GW BOUNDARY FLOW =        3737075.86       GW BOUNDARY FLOW =            651.14

   INFLOWS - OUTFLOWS =       -8707280.04     INFLOWS - OUTFLOWS =         -40580.16
             --------                                   --------

 TOTAL STORAGE CHANGE =       -8641984.04         STORAGE CHANGE =         -40601.94
       --------------                             --------------
         LAND SURFACE =           3577.09           LAND SURFACE =           -695.92
            SOIL ZONE =         202689.62              SOIL ZONE =         -18855.36
     UNSATURATED ZONE =        5665818.56       UNSATURATED ZONE =         -27324.57
       SATURATED ZONE =       -1.4514D+07         SATURATED ZONE =           6273.91

 OVERALL BUDGET ERROR =         -65296.00           BUDGET ERROR =             21.78


  PERCENT DISCREPANCY =             -0.01    PERCENT DISCREPANCY =              0.05



1
 SUMMARY VOLUMETRIC BUDGET FOR GSFLOW 
 DATE: 07 30 1996              CUMULATIVE TIME STEP:    5782
 MODFLOW STRESS PERIOD      2     CURRENT TIME STEP:    5782     ITERATIONS:      14

 -----------------------------------------------------------------------------------

   CUMULATIVE VOLUMES               L**3   RATES FOR THIS TIME STEP           L**3/T
   ------------------                      ------------------------

                                     IN                                         IN
                                     --                                         --
        PRECIPITATION =        4.6511D+08          PRECIPITATION =                  
           STREAMFLOW =                               STREAMFLOW =                  
     GW BOUNDARY FLOW =                         GW BOUNDARY FLOW =                  


                                    OUT                                        OUT
                                    ---                                        ---
   EVAPOTRANSPIRATION =        2.9290D+08     EVAPOTRANSPIRATION =          22026.33
           STREAMFLOW =        1.7739D+08             STREAMFLOW =           6678.96
     GW BOUNDARY FLOW =        3741632.06       GW BOUNDARY FLOW =            650.68

   INFLOWS - OUTFLOWS =       -8922009.67     INFLOWS - OUTFLOWS =         -29355.98
             --------                                   --------

 TOTAL STORAGE CHANGE =       -8856890.17         STORAGE CHANGE =         -29385.03
       --------------                             --------------
         LAND SURFACE =            384.94           LAND SURFACE =           -304.03
            SOIL ZONE =         136994.33              SOIL ZONE =          -8348.57
     UNSATURATED ZONE =        5480809.42       UNSATURATED ZONE =         -26060.87
       SATURATED ZONE =       -1.4475D+07         SATURATED ZONE =           5328.45

 OVERALL BUDGET ERROR =         -65119.50           BUDGET ERROR =             29.05


  PERCENT DISCREPANCY =             -0.01    PERCENT DISCREPANCY =              0.10



1
 SUMMARY VOLUMETRIC BUDGET FOR GSFLOW 
 DATE: 08 06 1996              CUMULATIVE TIME STEP:    5789
 MODFLOW STRESS PERIOD      2     CURRENT TIME STEP:    5789     ITERATIONS:      14

 -----------------------------------------------------------------------------------

   CUMULATIVE VOLUMES               L**3   RATES FOR THIS TIME STEP           L**3/T
   ------------------                      ------------------------

                                     IN                                         IN
                                     --                                         --
        PRECIPITATION =        4.6511D+08          PRECIPITATION =                  
           STREAMFLOW =                               STREAMFLOW =                  
     GW BOUNDARY FLOW =                         GW BOUNDARY FLOW =                  


                                    OUT                                        OUT
                                    ---                                        ---
   EVAPOTRANSPIRATION =        2.9301D+08     EVAPOTRANSPIRATION =          15348.94
           STREAMFLOW =        1.7744D+08             STREAMFLOW =           6485.08
     GW BOUNDARY FLOW =        3746185.09       GW BOUNDARY FLOW =            650.31

   INFLOWS - OUTFLOWS =       -9090331.21     INFLOWS - OUTFLOWS =         -22484.32
             --------                                   --------

 TOTAL STORAGE CHANGE =       -9025371.92         STORAGE CHANGE =         -22509.84
       --------------                             --------------
         LAND SURFACE =                             LAND SURFACE =                  
            SOIL ZONE =         112798.11              SOIL ZONE =          -2074.61
     UNSATURATED ZONE =        5303869.88       UNSATURATED ZONE =         -24668.03
       SATURATED ZONE =       -1.4442D+07         SATURATED ZONE =           4232.80

 OVERALL BUDGET ERROR =         -64959.29           BUDGET ERROR =             25.52


  PERCENT DISCREPANCY =             -0.01    PERCENT DISCREPANCY =              0.11



1
 SUMMARY VOLUMETRIC BUDGET FOR GSFLOW 
 DATE: 08 13 1996              CUMULATIVE TIME STEP:    5796
 MODFLOW STRESS PERIOD      2     CURRENT TIME STEP:    5796     ITERATIONS:      15

 -----------------------------------------------------------------------------------

   CUMULATIVE VOLUMES               L**3   RATES FOR THIS TIME STEP           L**3/T
   ------------------                      ------------------------

                                     IN                                         IN
                                     --                                         --
        PRECIPITATION =        4.6531D+08          PRECIPITATION =          54456.73
           STREAMFLOW =                               STREAMFLOW =                  
     GW BOUNDARY FLOW =                         GW BOUNDARY FLOW =                  


                                    OUT                                        OUT
                                    ---                                        ---
   EVAPOTRANSPIRATION =        2.9317D+08     EVAPOTRANSPIRATION =          30091.03
           STREAMFLOW =        1.7749D+08             STREAMFLOW =           7668.37
     GW BOUNDARY FLOW =        3750737.10       GW BOUNDARY FLOW =            650.33

   INFLOWS - OUTFLOWS =       -9093558.63     INFLOWS - OUTFLOWS =          16046.99
             --------                                   --------

 TOTAL STORAGE CHANGE =       -9028751.77         STORAGE CHANGE =          16029.83
       --------------                             --------------
         LAND SURFACE =          34505.06           LAND SURFACE =                  
            SOIL ZONE =         216457.19              SOIL ZONE =          36054.50
     UNSATURATED ZONE =        5132234.79       UNSATURATED ZONE =         -24389.17
       SATURATED ZONE =       -1.4412D+07         SATURATED ZONE =           4364.50

 OVERALL BUDGET ERROR =         -64806.86           BUDGET ERROR =             17.16


  PERCENT DISCREPANCY =             -0.01    PERCENT DISCREPANCY =              0.03



1
 SUMMARY VOLUMETRIC BUDGET FOR GSFLOW 
 DATE: 08 20 1996              CUMULATIVE TIME STEP:    5803
 MODFLOW STRESS PERIOD      2     CURRENT TIME STEP:    5803     ITERATIONS:      14

 -----------------------------------------------------------------------------------

   CUMULATIVE VOLUMES               L**3   RATES FOR THIS TIME STEP           L**3/T
   ------------------                      ------------------------

                                     IN                                         IN
                                     --                                         --
        PRECIPITATION =        4.6531D+08          PRECIPITATION =                  
           STREAMFLOW =                               STREAMFLOW =                  
     GW BOUNDARY FLOW =                         GW BOUNDARY FLOW =                  


                                    OUT                                        OUT
                                    ---                                        ---
   EVAPOTRANSPIRATION =        2.9335D+08     EVAPOTRANSPIRATION =          16643.99
           STREAMFLOW =        1.7753D+08             STREAMFLOW =           6295.31
     GW BOUNDARY FLOW =        3755288.01       GW BOUNDARY FLOW =            649.97

   INFLOWS - OUTFLOWS =       -9330079.72     INFLOWS - OUTFLOWS =         -23589.27
             --------                                   --------

 TOTAL STORAGE CHANGE =       -9265418.67         STORAGE CHANGE =         -23613.98
       --------------                             --------------
         LAND SURFACE =                             LAND SURFACE =                  
            SOIL ZONE =         154383.86              SOIL ZONE =          -3702.73
     UNSATURATED ZONE =        4966320.22       UNSATURATED ZONE =         -23161.84
       SATURATED ZONE =       -1.4386D+07         SATURATED ZONE =           3250.60

 OVERALL BUDGET ERROR =         -64661.05           BUDGET ERROR =             24.70


  PERCENT DISCREPANCY =             -0.01    PERCENT DISCREPANCY =              0.10



1
 SUMMARY VOLUMETRIC BUDGET FOR GSFLOW 
 DATE: 08 27 1996              CUMULATIVE TIME STEP:    5810
 MODFLOW STRESS PERIOD      2     CURRENT TIME STEP:    5810     ITERATIONS:      14

 -----------------------------------------------------------------------------------

   CUMULATIVE VOLUMES               L**3   RATES FOR THIS TIME STEP           L**3/T
   ------------------                      ------------------------

                                     IN                                         IN
                                     --                                         --
        PRECIPITATION =        4.6531D+08          PRECIPITATION =                  
           STREAMFLOW =                               STREAMFLOW =                  
     GW BOUNDARY FLOW =                         GW BOUNDARY FLOW =                  


                                    OUT                                        OUT
                                    ---                                        ---
   EVAPOTRANSPIRATION =        2.9348D+08     EVAPOTRANSPIRATION =          14384.45
           STREAMFLOW =        1.7758D+08             STREAMFLOW =           6143.48
     GW BOUNDARY FLOW =        3759836.49       GW BOUNDARY FLOW =            649.63

   INFLOWS - OUTFLOWS =       -9506759.90     INFLOWS - OUTFLOWS =         -21177.57
             --------                                   --------

 TOTAL STORAGE CHANGE =       -9442255.15         STORAGE CHANGE =         -21201.30
       --------------                             --------------
         LAND SURFACE =                             LAND SURFACE =                  
            SOIL ZONE =         115935.67              SOIL ZONE =          -1531.92
     UNSATURATED ZONE =        4811016.18       UNSATURATED ZONE =         -21463.16
       SATURATED ZONE =       -1.4369D+07         SATURATED ZONE =           1793.78

 OVERALL BUDGET ERROR =         -64504.75           BUDGET ERROR =             23.74


  PERCENT DISCREPANCY =             -0.01    PERCENT DISCREPANCY =              0.11



1
 SUMMARY VOLUMETRIC BUDGET FOR GSFLOW 
 DATE: 09 03 1996              CUMULATIVE TIME STEP:    5817
 MODFLOW STRESS PERIOD      2     CURRENT TIME STEP:    5817     ITERATIONS:      15

 -----------------------------------------------------------------------------------

   CUMULATIVE VOLUMES               L**3   RATES FOR THIS TIME STEP           L**3/T
   ------------------                      ------------------------

                                     IN                                         IN
                                     --                                         --
        PRECIPITATION =        4.6531D+08          PRECIPITATION =                  
           STREAMFLOW =                               STREAMFLOW =                  
     GW BOUNDARY FLOW =                         GW BOUNDARY FLOW =                  


                                    OUT                                        OUT
                                    ---                                        ---
   EVAPOTRANSPIRATION =        2.9358D+08     EVAPOTRANSPIRATION =          12086.70
           STREAMFLOW =        1.7762D+08             STREAMFLOW =           6044.52
     GW BOUNDARY FLOW =        3764382.48       GW BOUNDARY FLOW =            649.27

   INFLOWS - OUTFLOWS =       -9653202.14     INFLOWS - OUTFLOWS =         -18780.49
             --------                                   --------

 TOTAL STORAGE CHANGE =       -9588845.40         STORAGE CHANGE =         -18799.77
       --------------                             --------------
         LAND SURFACE =                             LAND SURFACE =                  
            SOIL ZONE =         106108.74              SOIL ZONE =            640.67
     UNSATURATED ZONE =        4663048.06       UNSATURATED ZONE =         -21206.68
       SATURATED ZONE =       -1.4358D+07         SATURATED ZONE =           1766.24

 OVERALL BUDGET ERROR =         -64356.74           BUDGET ERROR =             19.28


  PERCENT DISCREPANCY =             -0.01    PERCENT DISCREPANCY =              0.10



1
 SUMMARY VOLUMETRIC BUDGET FOR GSFLOW 
 DATE: 09 10 1996              CUMULATIVE TIME STEP:    5824
 MODFLOW STRESS PERIOD      2     CURRENT TIME STEP:    5824     ITERATIONS:      12

 -----------------------------------------------------------------------------------

   CUMULATIVE VOLUMES               L**3   RATES FOR THIS TIME STEP           L**3/T
   ------------------                      ------------------------

                                     IN                                         IN
                                     --                                         --
        PRECIPITATION =        4.6531D+08          PRECIPITATION =                  
           STREAMFLOW =                               STREAMFLOW =                  
     GW BOUNDARY FLOW =                         GW BOUNDARY FLOW =                  


                                    OUT                                        OUT
                                    ---                                        ---
   EVAPOTRANSPIRATION =        2.9366D+08     EVAPOTRANSPIRATION =          13327.20
           STREAMFLOW =        1.7766D+08             STREAMFLOW =           5952.90
     GW BOUNDARY FLOW =        3768926.07       GW BOUNDARY FLOW =            648.93

   INFLOWS - OUTFLOWS =       -9782552.12     INFLOWS - OUTFLOWS =         -19929.04
             --------                                   --------

 TOTAL STORAGE CHANGE =       -9718380.17         STORAGE CHANGE =         -19964.39
       --------------                             --------------
         LAND SURFACE =                             LAND SURFACE =                  
            SOIL ZONE =         111847.84              SOIL ZONE =           -721.98
     UNSATURATED ZONE =        4519701.77       UNSATURATED ZONE =         -19864.95
       SATURATED ZONE =       -1.4350D+07         SATURATED ZONE =            622.54

 OVERALL BUDGET ERROR =         -64171.95           BUDGET ERROR =             35.35


  PERCENT DISCREPANCY =             -0.01    PERCENT DISCREPANCY =              0.18



1
 SUMMARY VOLUMETRIC BUDGET FOR GSFLOW 
 DATE: 09 17 1996              CUMULATIVE TIME STEP:    5831
 MODFLOW STRESS PERIOD      2     CURRENT TIME STEP:    5831     ITERATIONS:      12

 -----------------------------------------------------------------------------------

   CUMULATIVE VOLUMES               L**3   RATES FOR THIS TIME STEP           L**3/T
   ------------------                      ------------------------

                                     IN                                         IN
                                     --                                         --
        PRECIPITATION =        4.6637D+08          PRECIPITATION =                  
           STREAMFLOW =                               STREAMFLOW =                  
     GW BOUNDARY FLOW =                         GW BOUNDARY FLOW =                  


                                    OUT                                        OUT
                                    ---                                        ---
   EVAPOTRANSPIRATION =        2.9386D+08     EVAPOTRANSPIRATION =          74571.48
           STREAMFLOW =        1.7773D+08             STREAMFLOW =           9984.52
     GW BOUNDARY FLOW =        3773469.17       GW BOUNDARY FLOW =            649.36

   INFLOWS - OUTFLOWS =       -8995649.19     INFLOWS - OUTFLOWS =         -85205.37
             --------                                   --------

 TOTAL STORAGE CHANGE =       -8931672.15         STORAGE CHANGE =         -85243.18
       --------------                             --------------
         LAND SURFACE =                             LAND SURFACE =         -34505.06
            SOIL ZONE =        1030160.46              SOIL ZONE =         -31691.27
     UNSATURATED ZONE =        4380567.73       UNSATURATED ZONE =         -19818.93
       SATURATED ZONE =       -1.4342D+07         SATURATED ZONE =            772.08

 OVERALL BUDGET ERROR =         -63977.04           BUDGET ERROR =             37.81


  PERCENT DISCREPANCY =             -0.01    PERCENT DISCREPANCY =              0.04



1
 SUMMARY VOLUMETRIC BUDGET FOR GSFLOW 
 DATE: 09 24 1996              CUMULATIVE TIME STEP:    5838
 MODFLOW STRESS PERIOD      2     CURRENT TIME STEP:    5838     ITERATIONS:      13

 -----------------------------------------------------------------------------------

   CUMULATIVE VOLUMES               L**3   RATES FOR THIS TIME STEP           L**3/T
   ------------------                      ------------------------

                                     IN                                         IN
                                     --                                         --
        PRECIPITATION =        4.6637D+08          PRECIPITATION =                  
           STREAMFLOW =                               STREAMFLOW =                  
     GW BOUNDARY FLOW =                         GW BOUNDARY FLOW =                  


                                    OUT                                        OUT
                                    ---                                        ---
   EVAPOTRANSPIRATION =        2.9440D+08     EVAPOTRANSPIRATION =          51661.02
           STREAMFLOW =        1.7778D+08             STREAMFLOW =           6292.74
     GW BOUNDARY FLOW =        3778010.78       GW BOUNDARY FLOW =            648.47

   INFLOWS - OUTFLOWS =       -9586979.13     INFLOWS - OUTFLOWS =         -58602.23
             --------                                   --------

 TOTAL STORAGE CHANGE =       -9523224.40         STORAGE CHANGE =         -58632.31
       --------------                             --------------
         LAND SURFACE =                             LAND SURFACE =                  
            SOIL ZONE =         571319.97              SOIL ZONE =         -39770.18
     UNSATURATED ZONE =        4244886.49       UNSATURATED ZONE =         -19096.35
       SATURATED ZONE =       -1.4339D+07         SATURATED ZONE =            234.22

 OVERALL BUDGET ERROR =         -63754.74           BUDGET ERROR =             30.08


  PERCENT DISCREPANCY =             -0.01    PERCENT DISCREPANCY =              0.05



